/*---------------------------------------------------------------------------*\
  =========                 |
  \\      /  F ield         | OpenFOAM: The Open Source CFD Toolbox
   \\    /   O peration     | Website:  https://openfoam.org
    \\  /    A nd           | Version:  9
     \\/     M anipulation  |
\*---------------------------------------------------------------------------*/
Build  : 9-b456138dc4bc
Exec   : simpleFoam -parallel
Date   : Nov 24 2021
Time   : 16:00:03
Host   : "laptop-Lenovo-G400"
PID    : 6524
I/O    : uncollated
Case   : /home/laptop/OpenFOAM/laptop-9/run/curso-cfd/motorBike
nProcs : 4
Slaves : 
3
(
"laptop-Lenovo-G400.6525"
"laptop-Lenovo-G400.6526"
"laptop-Lenovo-G400.6527"
)

Pstream initialised with:
    floatTransfer      : 0
    nProcsSimpleSum    : 0
    commsType          : nonBlocking
    polling iterations : 0
sigFpe : Enabling floating point exception trapping (FOAM_SIGFPE).
fileModificationChecking : Monitoring run-time modified files using timeStampMaster (fileModificationSkew 10)
allowSystemOperations : Allowing user-supplied system call operations

// * * * * * * * * * * * * * * * * * * * * * * * * * * * * * * * * * * * * * //
Create time

Create mesh for time = 0


SIMPLE: No convergence criteria found

Reading field p

Reading field U

Reading/calculating face flux field phi

Selecting incompressible transport model Newtonian
Selecting turbulence model type RAS
Selecting RAS turbulence model kOmegaSST
Selecting patchDistMethod meshWave
RAS
{
    model           kOmegaSST;
    turbulence      on;
    printCoeffs     on;
    alphaK1         0.85;
    alphaK2         1;
    alphaOmega1     0.5;
    alphaOmega2     0.856;
    gamma1          0.555556;
    gamma2          0.44;
    beta1           0.075;
    beta2           0.0828;
    betaStar        0.09;
    a1              0.31;
    b1              1;
    c1              10;
    F3              false;
}

No MRF models present

No fvModels present
No fvConstraints present

Starting time loop

streamlines streamlines:
    automatic track length specified through number of sub cycles : 5

Reading surface description:
    yNormal

forces forceCoeffs1:
    Not including porosity effects
forceCoeffs forceCoeffs1:
    Not including porosity effects
streamlines streamlines write:
    seeded 20 particles
    Tracks:20
    Total samples:17687
    Writing data to "/home/laptop/OpenFOAM/laptop-9/run/curso-cfd/motorBike/postProcessing/sets/streamlines/0"
    Writing data to "/home/laptop/OpenFOAM/laptop-9/run/curso-cfd/motorBike/postProcessing/sets/streamlines/0"
forceCoeffs forceCoeffs1 write:
    Cm    = 0.00914425
    Cd    = 0.0227262
    Cl    = 0.000771125
    Cl(f) = 0.00952981
    Cl(r) = -0.00875868

Time = 1

smoothSolver:  Solving for Ux, Initial residual = 0.0878689, Final residual = 0.00822655, No Iterations 7
smoothSolver:  Solving for Uy, Initial residual = 0.589787, Final residual = 0.0459325, No Iterations 7
smoothSolver:  Solving for Uz, Initial residual = 0.403781, Final residual = 0.0360783, No Iterations 5
GAMG:  Solving for p, Initial residual = 1, Final residual = 0.00589076, No Iterations 5
time step continuity errors : sum local = 0.000584111, global = -4.7589e-06, cumulative = -4.7589e-06
smoothSolver:  Solving for omega, Initial residual = 0.00136215, Final residual = 8.07237e-05, No Iterations 2
bounding omega, min: -9.64119 max: 16757.4 average: 186.23
smoothSolver:  Solving for k, Initial residual = 1, Final residual = 0.0457733, No Iterations 2
ExecutionTime = 6.09 s  ClockTime = 7 s

forceCoeffs forceCoeffs1 write:
    Cm    = 0.572911
    Cd    = 1.34432
    Cl    = -0.0461704
    Cl(f) = 0.549825
    Cl(r) = -0.595996

Time = 2

smoothSolver:  Solving for Ux, Initial residual = 0.0385928, Final residual = 0.00380055, No Iterations 7
smoothSolver:  Solving for Uy, Initial residual = 0.387076, Final residual = 0.0370991, No Iterations 7
smoothSolver:  Solving for Uz, Initial residual = 0.162616, Final residual = 0.0131456, No Iterations 7
GAMG:  Solving for p, Initial residual = 0.0754209, Final residual = 0.000315312, No Iterations 5
time step continuity errors : sum local = 0.000331402, global = 9.68635e-06, cumulative = 4.92745e-06
smoothSolver:  Solving for omega, Initial residual = 0.00150411, Final residual = 0.000107537, No Iterations 2
bounding omega, min: -5.73762 max: 16884.2 average: 235.867
smoothSolver:  Solving for k, Initial residual = 0.0518341, Final residual = 0.00253381, No Iterations 2
ExecutionTime = 7.42 s  ClockTime = 9 s

forceCoeffs forceCoeffs1 write:
    Cm    = 0.654206
    Cd    = 1.5307
    Cl    = -0.0610981
    Cl(f) = 0.623657
    Cl(r) = -0.684755

Time = 3

smoothSolver:  Solving for Ux, Initial residual = 0.0202393, Final residual = 0.00169469, No Iterations 8
smoothSolver:  Solving for Uy, Initial residual = 0.29953, Final residual = 0.0297246, No Iterations 7
smoothSolver:  Solving for Uz, Initial residual = 0.109656, Final residual = 0.00949501, No Iterations 7
GAMG:  Solving for p, Initial residual = 0.0521757, Final residual = 0.000482287, No Iterations 4
time step continuity errors : sum local = 0.00069516, global = -7.91507e-07, cumulative = 4.13595e-06
smoothSolver:  Solving for omega, Initial residual = 0.0011245, Final residual = 7.69295e-05, No Iterations 2
bounding omega, min: -0.616762 max: 21281.6 average: 288.224
smoothSolver:  Solving for k, Initial residual = 0.0222858, Final residual = 0.00117396, No Iterations 2
ExecutionTime = 9.04 s  ClockTime = 11 s

forceCoeffs forceCoeffs1 write:
    Cm    = 0.571408
    Cd    = 1.33602
    Cl    = -0.0432513
    Cl(f) = 0.549783
    Cl(r) = -0.593034

Time = 4

smoothSolver:  Solving for Ux, Initial residual = 0.0136693, Final residual = 0.00118526, No Iterations 8
smoothSolver:  Solving for Uy, Initial residual = 0.240591, Final residual = 0.0232902, No Iterations 7
smoothSolver:  Solving for Uz, Initial residual = 0.0982668, Final residual = 0.00869768, No Iterations 7
GAMG:  Solving for p, Initial residual = 0.0460156, Final residual = 0.000387124, No Iterations 4
time step continuity errors : sum local = 0.000640505, global = 5.67009e-07, cumulative = 4.70296e-06
smoothSolver:  Solving for omega, Initial residual = 0.00102207, Final residual = 7.60496e-05, No Iterations 2
smoothSolver:  Solving for k, Initial residual = 0.0129933, Final residual = 0.000716549, No Iterations 2
ExecutionTime = 10.5 s  ClockTime = 13 s

forceCoeffs forceCoeffs1 write:
    Cm    = 0.461711
    Cd    = 1.08535
    Cl    = -0.0285866
    Cl(f) = 0.447418
    Cl(r) = -0.476005

Time = 5

smoothSolver:  Solving for Ux, Initial residual = 0.0106119, Final residual = 0.000886842, No Iterations 8
smoothSolver:  Solving for Uy, Initial residual = 0.207702, Final residual = 0.0195532, No Iterations 7
smoothSolver:  Solving for Uz, Initial residual = 0.100589, Final residual = 0.00904049, No Iterations 7
GAMG:  Solving for p, Initial residual = 0.0414357, Final residual = 0.000337408, No Iterations 4
time step continuity errors : sum local = 0.000614508, global = 1.58985e-05, cumulative = 2.06015e-05
smoothSolver:  Solving for omega, Initial residual = 0.000929802, Final residual = 7.16246e-05, No Iterations 2
smoothSolver:  Solving for k, Initial residual = 0.00898982, Final residual = 0.000508921, No Iterations 2
ExecutionTime = 12.01 s  ClockTime = 14 s

forceCoeffs forceCoeffs1 write:
    Cm    = 0.371328
    Cd    = 0.881178
    Cl    = -0.0176857
    Cl(f) = 0.362485
    Cl(r) = -0.380171

Time = 6

smoothSolver:  Solving for Ux, Initial residual = 0.00851109, Final residual = 0.000694601, No Iterations 8
smoothSolver:  Solving for Uy, Initial residual = 0.185746, Final residual = 0.0172378, No Iterations 7
smoothSolver:  Solving for Uz, Initial residual = 0.1056, Final residual = 0.00970527, No Iterations 7
GAMG:  Solving for p, Initial residual = 0.0372938, Final residual = 0.000283209, No Iterations 4
time step continuity errors : sum local = 0.000557573, global = 2.95651e-05, cumulative = 5.01665e-05
smoothSolver:  Solving for omega, Initial residual = 0.000848688, Final residual = 6.68913e-05, No Iterations 2
smoothSolver:  Solving for k, Initial residual = 0.00702095, Final residual = 0.000406711, No Iterations 2
ExecutionTime = 13.39 s  ClockTime = 16 s

forceCoeffs forceCoeffs1 write:
    Cm    = 0.304005
    Cd    = 0.728621
    Cl    = -0.00435289
    Cl(f) = 0.301829
    Cl(r) = -0.306182

Time = 7

smoothSolver:  Solving for Ux, Initial residual = 0.00715566, Final residual = 0.00057506, No Iterations 8
smoothSolver:  Solving for Uy, Initial residual = 0.167924, Final residual = 0.0153075, No Iterations 7
smoothSolver:  Solving for Uz, Initial residual = 0.115957, Final residual = 0.0106488, No Iterations 7
GAMG:  Solving for p, Initial residual = 0.0333484, Final residual = 0.000232265, No Iterations 4
time step continuity errors : sum local = 0.000485741, global = 3.61503e-05, cumulative = 8.63169e-05
smoothSolver:  Solving for omega, Initial residual = 0.000776393, Final residual = 6.14578e-05, No Iterations 2
smoothSolver:  Solving for k, Initial residual = 0.0058784, Final residual = 0.000347138, No Iterations 2
ExecutionTime = 14.77 s  ClockTime = 17 s

forceCoeffs forceCoeffs1 write:
    Cm    = 0.257208
    Cd    = 0.621889
    Cl    = 0.00667103
    Cl(f) = 0.260544
    Cl(r) = -0.253872

Time = 8

smoothSolver:  Solving for Ux, Initial residual = 0.00615736, Final residual = 0.000499944, No Iterations 8
smoothSolver:  Solving for Uy, Initial residual = 0.150151, Final residual = 0.0133966, No Iterations 7
smoothSolver:  Solving for Uz, Initial residual = 0.127924, Final residual = 0.0116847, No Iterations 7
GAMG:  Solving for p, Initial residual = 0.0305305, Final residual = 0.000188126, No Iterations 4
time step continuity errors : sum local = 0.000411686, global = 3.73518e-05, cumulative = 0.000123669
smoothSolver:  Solving for omega, Initial residual = 0.000709281, Final residual = 5.63143e-05, No Iterations 2
smoothSolver:  Solving for k, Initial residual = 0.00514784, Final residual = 0.00031095, No Iterations 2
ExecutionTime = 16.19 s  ClockTime = 19 s

forceCoeffs forceCoeffs1 write:
    Cm    = 0.226535
    Cd    = 0.551918
    Cl    = 0.0116449
    Cl(f) = 0.232357
    Cl(r) = -0.220712

Time = 9

smoothSolver:  Solving for Ux, Initial residual = 0.00539154, Final residual = 0.000447565, No Iterations 8
smoothSolver:  Solving for Uy, Initial residual = 0.134363, Final residual = 0.0117801, No Iterations 7
smoothSolver:  Solving for Uz, Initial residual = 0.135436, Final residual = 0.0122592, No Iterations 7
GAMG:  Solving for p, Initial residual = 0.0283947, Final residual = 0.000156581, No Iterations 4
time step continuity errors : sum local = 0.000351783, global = 3.08805e-05, cumulative = 0.000154549
smoothSolver:  Solving for omega, Initial residual = 0.000654465, Final residual = 5.19144e-05, No Iterations 2
smoothSolver:  Solving for k, Initial residual = 0.00465419, Final residual = 0.000287775, No Iterations 2
ExecutionTime = 17.64 s  ClockTime = 21 s

forceCoeffs forceCoeffs1 write:
    Cm    = 0.207131
    Cd    = 0.507999
    Cl    = 0.0140067
    Cl(f) = 0.214135
    Cl(r) = -0.200128

Time = 10

smoothSolver:  Solving for Ux, Initial residual = 0.00480528, Final residual = 0.000404184, No Iterations 8
smoothSolver:  Solving for Uy, Initial residual = 0.121295, Final residual = 0.0105123, No Iterations 7
smoothSolver:  Solving for Uz, Initial residual = 0.124668, Final residual = 0.0112253, No Iterations 7
GAMG:  Solving for p, Initial residual = 0.026741, Final residual = 0.000133966, No Iterations 4
time step continuity errors : sum local = 0.000304881, global = 1.95959e-05, cumulative = 0.000174145
smoothSolver:  Solving for omega, Initial residual = 0.000608759, Final residual = 4.83343e-05, No Iterations 2
smoothSolver:  Solving for k, Initial residual = 0.004304, Final residual = 0.000273145, No Iterations 2
ExecutionTime = 18.81 s  ClockTime = 23 s

forceCoeffs forceCoeffs1 write:
    Cm    = 0.194424
    Cd    = 0.480164
    Cl    = 0.0162346
    Cl(f) = 0.202541
    Cl(r) = -0.186306

Time = 11

smoothSolver:  Solving for Ux, Initial residual = 0.0043885, Final residual = 0.000366978, No Iterations 8
smoothSolver:  Solving for Uy, Initial residual = 0.109947, Final residual = 0.00955272, No Iterations 7
smoothSolver:  Solving for Uz, Initial residual = 0.113862, Final residual = 0.0101731, No Iterations 7
GAMG:  Solving for p, Initial residual = 0.0256183, Final residual = 0.000124098, No Iterations 4
time step continuity errors : sum local = 0.000282389, global = 1.09521e-05, cumulative = 0.000185097
smoothSolver:  Solving for omega, Initial residual = 0.000571276, Final residual = 4.52288e-05, No Iterations 2
smoothSolver:  Solving for k, Initial residual = 0.0040129, Final residual = 0.000260543, No Iterations 2
ExecutionTime = 20.08 s  ClockTime = 24 s

forceCoeffs forceCoeffs1 write:
    Cm    = 0.18584
    Cd    = 0.461942
    Cl    = 0.0191308
    Cl(f) = 0.195405
    Cl(r) = -0.176274

Time = 12

smoothSolver:  Solving for Ux, Initial residual = 0.00411357, Final residual = 0.00033882, No Iterations 8
smoothSolver:  Solving for Uy, Initial residual = 0.100773, Final residual = 0.00891352, No Iterations 7
smoothSolver:  Solving for Uz, Initial residual = 0.109001, Final residual = 0.00984074, No Iterations 7
GAMG:  Solving for p, Initial residual = 0.024692, Final residual = 0.000123774, No Iterations 4
time step continuity errors : sum local = 0.000279239, global = 7.36718e-06, cumulative = 0.000192464
smoothSolver:  Solving for omega, Initial residual = 0.000538857, Final residual = 4.25502e-05, No Iterations 2
smoothSolver:  Solving for k, Initial residual = 0.00377767, Final residual = 0.000250943, No Iterations 2
ExecutionTime = 21.36 s  ClockTime = 26 s

forceCoeffs forceCoeffs1 write:
    Cm    = 0.180518
    Cd    = 0.450014
    Cl    = 0.0239766
    Cl(f) = 0.192506
    Cl(r) = -0.168529

Time = 13

smoothSolver:  Solving for Ux, Initial residual = 0.0039158, Final residual = 0.000316967, No Iterations 8
smoothSolver:  Solving for Uy, Initial residual = 0.0924099, Final residual = 0.00835396, No Iterations 7
smoothSolver:  Solving for Uz, Initial residual = 0.104867, Final residual = 0.00958012, No Iterations 7
GAMG:  Solving for p, Initial residual = 0.0240803, Final residual = 0.000125252, No Iterations 4
time step continuity errors : sum local = 0.000278455, global = 6.77055e-06, cumulative = 0.000199235
smoothSolver:  Solving for omega, Initial residual = 0.000508689, Final residual = 4.00372e-05, No Iterations 2
smoothSolver:  Solving for k, Initial residual = 0.00358482, Final residual = 0.000243983, No Iterations 2
ExecutionTime = 22.66 s  ClockTime = 27 s

forceCoeffs forceCoeffs1 write:
    Cm    = 0.177741
    Cd    = 0.442786
    Cl    = 0.0296393
    Cl(f) = 0.192561
    Cl(r) = -0.162922

Time = 14

smoothSolver:  Solving for Ux, Initial residual = 0.00375785, Final residual = 0.000303727, No Iterations 8
smoothSolver:  Solving for Uy, Initial residual = 0.0858234, Final residual = 0.00786535, No Iterations 7
smoothSolver:  Solving for Uz, Initial residual = 0.0941902, Final residual = 0.0086999, No Iterations 7
GAMG:  Solving for p, Initial residual = 0.0236793, Final residual = 0.000127131, No Iterations 4
time step continuity errors : sum local = 0.000278488, global = 8.72083e-06, cumulative = 0.000207956
smoothSolver:  Solving for omega, Initial residual = 0.000483423, Final residual = 3.78609e-05, No Iterations 2
smoothSolver:  Solving for k, Initial residual = 0.00344515, Final residual = 0.000238769, No Iterations 2
ExecutionTime = 23.97 s  ClockTime = 29 s

forceCoeffs forceCoeffs1 write:
    Cm    = 0.177105
    Cd    = 0.439141
    Cl    = 0.0353671
    Cl(f) = 0.194789
    Cl(r) = -0.159421

Time = 15

smoothSolver:  Solving for Ux, Initial residual = 0.00361341, Final residual = 0.000294568, No Iterations 8
smoothSolver:  Solving for Uy, Initial residual = 0.0801172, Final residual = 0.00745169, No Iterations 7
smoothSolver:  Solving for Uz, Initial residual = 0.0841263, Final residual = 0.00784931, No Iterations 7
GAMG:  Solving for p, Initial residual = 0.0233065, Final residual = 0.000128447, No Iterations 4
time step continuity errors : sum local = 0.000277923, global = 1.09981e-05, cumulative = 0.000218954
smoothSolver:  Solving for omega, Initial residual = 0.000458983, Final residual = 3.58215e-05, No Iterations 2
smoothSolver:  Solving for k, Initial residual = 0.00331953, Final residual = 0.000233755, No Iterations 2
ExecutionTime = 25.31 s  ClockTime = 30 s

forceCoeffs forceCoeffs1 write:
    Cm    = 0.17695
    Cd    = 0.436156
    Cl    = 0.0413565
    Cl(f) = 0.197628
    Cl(r) = -0.156271

Time = 16

smoothSolver:  Solving for Ux, Initial residual = 0.00346332, Final residual = 0.000284939, No Iterations 8
smoothSolver:  Solving for Uy, Initial residual = 0.0750607, Final residual = 0.00706293, No Iterations 7
smoothSolver:  Solving for Uz, Initial residual = 0.0762019, Final residual = 0.00716098, No Iterations 7
GAMG:  Solving for p, Initial residual = 0.022708, Final residual = 0.000124384, No Iterations 4
time step continuity errors : sum local = 0.000267489, global = 1.24986e-05, cumulative = 0.000231452
smoothSolver:  Solving for omega, Initial residual = 0.000436886, Final residual = 3.39778e-05, No Iterations 2
smoothSolver:  Solving for k, Initial residual = 0.00320538, Final residual = 0.000229284, No Iterations 2
ExecutionTime = 26.71 s  ClockTime = 32 s

forceCoeffs forceCoeffs1 write:
    Cm    = 0.176575
    Cd    = 0.433381
    Cl    = 0.0466831
    Cl(f) = 0.199916
    Cl(r) = -0.153233

Time = 17

smoothSolver:  Solving for Ux, Initial residual = 0.00330894, Final residual = 0.000274257, No Iterations 8
smoothSolver:  Solving for Uy, Initial residual = 0.0702978, Final residual = 0.0066602, No Iterations 7
smoothSolver:  Solving for Uz, Initial residual = 0.0699079, Final residual = 0.00655768, No Iterations 7
GAMG:  Solving for p, Initial residual = 0.0218513, Final residual = 0.000115045, No Iterations 4
time step continuity errors : sum local = 0.00024708, global = 1.13184e-05, cumulative = 0.000242771
smoothSolver:  Solving for omega, Initial residual = 0.000416006, Final residual = 3.21973e-05, No Iterations 2
smoothSolver:  Solving for k, Initial residual = 0.00309539, Final residual = 0.000224231, No Iterations 2
ExecutionTime = 28.05 s  ClockTime = 33 s

forceCoeffs forceCoeffs1 write:
    Cm    = 0.176407
    Cd    = 0.432104
    Cl    = 0.0506229
    Cl(f) = 0.201718
    Cl(r) = -0.151095

Time = 18

smoothSolver:  Solving for Ux, Initial residual = 0.00315987, Final residual = 0.00026311, No Iterations 8
smoothSolver:  Solving for Uy, Initial residual = 0.0655978, Final residual = 0.00621579, No Iterations 7
smoothSolver:  Solving for Uz, Initial residual = 0.0645817, Final residual = 0.00605986, No Iterations 7
GAMG:  Solving for p, Initial residual = 0.0209773, Final residual = 0.000104434, No Iterations 4
time step continuity errors : sum local = 0.000224983, global = 8.64476e-06, cumulative = 0.000251416
smoothSolver:  Solving for omega, Initial residual = 0.000397878, Final residual = 3.05695e-05, No Iterations 2
smoothSolver:  Solving for k, Initial residual = 0.00300299, Final residual = 0.000219612, No Iterations 2
ExecutionTime = 29.3 s  ClockTime = 35 s

forceCoeffs forceCoeffs1 write:
    Cm    = 0.176253
    Cd    = 0.431132
    Cl    = 0.0528105
    Cl(f) = 0.202659
    Cl(r) = -0.149848

Time = 19

smoothSolver:  Solving for Ux, Initial residual = 0.00300973, Final residual = 0.000250154, No Iterations 8
smoothSolver:  Solving for Uy, Initial residual = 0.0612688, Final residual = 0.00577043, No Iterations 7
smoothSolver:  Solving for Uz, Initial residual = 0.0611373, Final residual = 0.00573433, No Iterations 7
GAMG:  Solving for p, Initial residual = 0.0202984, Final residual = 9.85203e-05, No Iterations 4
time step continuity errors : sum local = 0.000212505, global = 5.36037e-06, cumulative = 0.000256776
smoothSolver:  Solving for omega, Initial residual = 0.000381149, Final residual = 2.91788e-05, No Iterations 2
smoothSolver:  Solving for k, Initial residual = 0.00292027, Final residual = 0.000215275, No Iterations 2
ExecutionTime = 30.68 s  ClockTime = 36 s

forceCoeffs forceCoeffs1 write:
    Cm    = 0.175964
    Cd    = 0.429968
    Cl    = 0.0535894
    Cl(f) = 0.202758
    Cl(r) = -0.149169

Time = 20

smoothSolver:  Solving for Ux, Initial residual = 0.00287441, Final residual = 0.000238765, No Iterations 8
smoothSolver:  Solving for Uy, Initial residual = 0.0574931, Final residual = 0.00538187, No Iterations 7
smoothSolver:  Solving for Uz, Initial residual = 0.0589229, Final residual = 0.00550196, No Iterations 7
GAMG:  Solving for p, Initial residual = 0.019712, Final residual = 9.93767e-05, No Iterations 4
time step continuity errors : sum local = 0.000214144, global = 2.74883e-06, cumulative = 0.000259525
smoothSolver:  Solving for omega, Initial residual = 0.00036598, Final residual = 2.79061e-05, No Iterations 2
smoothSolver:  Solving for k, Initial residual = 0.00284812, Final residual = 0.000210677, No Iterations 2
ExecutionTime = 32.08 s  ClockTime = 38 s

forceCoeffs forceCoeffs1 write:
    Cm    = 0.17554
    Cd    = 0.428473
    Cl    = 0.0530275
    Cl(f) = 0.202054
    Cl(r) = -0.149026

Time = 21

smoothSolver:  Solving for Ux, Initial residual = 0.00276295, Final residual = 0.000230575, No Iterations 8
smoothSolver:  Solving for Uy, Initial residual = 0.0544541, Final residual = 0.00508975, No Iterations 7
smoothSolver:  Solving for Uz, Initial residual = 0.0571214, Final residual = 0.00533204, No Iterations 7
GAMG:  Solving for p, Initial residual = 0.0191109, Final residual = 0.000102032, No Iterations 4
time step continuity errors : sum local = 0.00021914, global = 3.14038e-06, cumulative = 0.000262665
smoothSolver:  Solving for omega, Initial residual = 0.000351681, Final residual = 2.67022e-05, No Iterations 2
smoothSolver:  Solving for k, Initial residual = 0.00279156, Final residual = 0.000206585, No Iterations 2
ExecutionTime = 33.4 s  ClockTime = 39 s

forceCoeffs forceCoeffs1 write:
    Cm    = 0.175158
    Cd    = 0.427528
    Cl    = 0.0511033
    Cl(f) = 0.200709
    Cl(r) = -0.149606

Time = 22

smoothSolver:  Solving for Ux, Initial residual = 0.00266621, Final residual = 0.000223679, No Iterations 8
smoothSolver:  Solving for Uy, Initial residual = 0.0520753, Final residual = 0.00491023, No Iterations 7
smoothSolver:  Solving for Uz, Initial residual = 0.0549994, Final residual = 0.00515811, No Iterations 7
GAMG:  Solving for p, Initial residual = 0.0184074, Final residual = 0.000101103, No Iterations 4
time step continuity errors : sum local = 0.000216157, global = 4.76641e-06, cumulative = 0.000267432
smoothSolver:  Solving for omega, Initial residual = 0.000337123, Final residual = 2.56027e-05, No Iterations 2
smoothSolver:  Solving for k, Initial residual = 0.00272209, Final residual = 0.000202438, No Iterations 2
ExecutionTime = 34.89 s  ClockTime = 41 s

forceCoeffs forceCoeffs1 write:
    Cm    = 0.174499
    Cd    = 0.427003
    Cl    = 0.0492543
    Cl(f) = 0.199126
    Cl(r) = -0.149872

Time = 23

smoothSolver:  Solving for Ux, Initial residual = 0.00257508, Final residual = 0.000216806, No Iterations 8
smoothSolver:  Solving for Uy, Initial residual = 0.0499447, Final residual = 0.0047861, No Iterations 7
smoothSolver:  Solving for Uz, Initial residual = 0.0526844, Final residual = 0.00496688, No Iterations 7
GAMG:  Solving for p, Initial residual = 0.0176762, Final residual = 9.60225e-05, No Iterations 4
time step continuity errors : sum local = 0.000204373, global = 4.96832e-06, cumulative = 0.0002724
smoothSolver:  Solving for omega, Initial residual = 0.000321167, Final residual = 2.44554e-05, No Iterations 2
smoothSolver:  Solving for k, Initial residual = 0.00263911, Final residual = 0.000197613, No Iterations 2
ExecutionTime = 36.22 s  ClockTime = 42 s

forceCoeffs forceCoeffs1 write:
    Cm    = 0.172993
    Cd    = 0.42601
    Cl    = 0.0484651
    Cl(f) = 0.197225
    Cl(r) = -0.14876

Time = 24

smoothSolver:  Solving for Ux, Initial residual = 0.00248949, Final residual = 0.000209674, No Iterations 8
smoothSolver:  Solving for Uy, Initial residual = 0.048273, Final residual = 0.0046614, No Iterations 7
smoothSolver:  Solving for Uz, Initial residual = 0.0499976, Final residual = 0.00477107, No Iterations 7
GAMG:  Solving for p, Initial residual = 0.0170407, Final residual = 8.84644e-05, No Iterations 4
time step continuity errors : sum local = 0.000187115, global = 4.36052e-06, cumulative = 0.00027676
smoothSolver:  Solving for omega, Initial residual = 0.000305905, Final residual = 2.33749e-05, No Iterations 2
smoothSolver:  Solving for k, Initial residual = 0.00256845, Final residual = 0.00019368, No Iterations 2
ExecutionTime = 37.48 s  ClockTime = 44 s

forceCoeffs forceCoeffs1 write:
    Cm    = 0.170509
    Cd    = 0.424237
    Cl    = 0.0490537
    Cl(f) = 0.195036
    Cl(r) = -0.145983

Time = 25

smoothSolver:  Solving for Ux, Initial residual = 0.00239686, Final residual = 0.000201676, No Iterations 8
smoothSolver:  Solving for Uy, Initial residual = 0.046675, Final residual = 0.00448749, No Iterations 7
smoothSolver:  Solving for Uz, Initial residual = 0.0471624, Final residual = 0.00452723, No Iterations 7
GAMG:  Solving for p, Initial residual = 0.0164205, Final residual = 7.98563e-05, No Iterations 4
time step continuity errors : sum local = 0.000167749, global = 3.51939e-06, cumulative = 0.00028028
smoothSolver:  Solving for omega, Initial residual = 0.000294779, Final residual = 2.2542e-05, No Iterations 2
smoothSolver:  Solving for k, Initial residual = 0.00254112, Final residual = 0.000192124, No Iterations 2
ExecutionTime = 38.73 s  ClockTime = 45 s

forceCoeffs forceCoeffs1 write:
    Cm    = 0.167516
    Cd    = 0.422204
    Cl    = 0.0509313
    Cl(f) = 0.192982
    Cl(r) = -0.14205

Time = 26

smoothSolver:  Solving for Ux, Initial residual = 0.00229793, Final residual = 0.000193492, No Iterations 8
smoothSolver:  Solving for Uy, Initial residual = 0.0445613, Final residual = 0.004267, No Iterations 7
smoothSolver:  Solving for Uz, Initial residual = 0.0444863, Final residual = 0.00428215, No Iterations 7
GAMG:  Solving for p, Initial residual = 0.0159876, Final residual = 7.28678e-05, No Iterations 4
time step continuity errors : sum local = 0.000151844, global = 3.03722e-06, cumulative = 0.000283317
smoothSolver:  Solving for omega, Initial residual = 0.00028382, Final residual = 2.16561e-05, No Iterations 2
smoothSolver:  Solving for k, Initial residual = 0.0025185, Final residual = 0.000190395, No Iterations 2
ExecutionTime = 39.98 s  ClockTime = 46 s

forceCoeffs forceCoeffs1 write:
    Cm    = 0.16455
    Cd    = 0.420073
    Cl    = 0.0533177
    Cl(f) = 0.191209
    Cl(r) = -0.137891

Time = 27

smoothSolver:  Solving for Ux, Initial residual = 0.00218106, Final residual = 0.000184122, No Iterations 8
smoothSolver:  Solving for Uy, Initial residual = 0.0421837, Final residual = 0.00401757, No Iterations 7
smoothSolver:  Solving for Uz, Initial residual = 0.0417129, Final residual = 0.00398755, No Iterations 7
GAMG:  Solving for p, Initial residual = 0.0155268, Final residual = 7.03575e-05, No Iterations 4
time step continuity errors : sum local = 0.000145301, global = 2.82015e-06, cumulative = 0.000286137
smoothSolver:  Solving for omega, Initial residual = 0.000271569, Final residual = 2.07724e-05, No Iterations 2
smoothSolver:  Solving for k, Initial residual = 0.00248036, Final residual = 0.000187887, No Iterations 2
ExecutionTime = 41.24 s  ClockTime = 47 s

forceCoeffs forceCoeffs1 write:
    Cm    = 0.161988
    Cd    = 0.418035
    Cl    = 0.0554587
    Cl(f) = 0.189717
    Cl(r) = -0.134258

Time = 28

smoothSolver:  Solving for Ux, Initial residual = 0.00207157, Final residual = 0.000174266, No Iterations 8
smoothSolver:  Solving for Uy, Initial residual = 0.0395146, Final residual = 0.00375001, No Iterations 7
smoothSolver:  Solving for Uz, Initial residual = 0.0389937, Final residual = 0.00367, No Iterations 7
GAMG:  Solving for p, Initial residual = 0.0150669, Final residual = 6.8947e-05, No Iterations 4
time step continuity errors : sum local = 0.000141203, global = 2.29461e-06, cumulative = 0.000288432
smoothSolver:  Solving for omega, Initial residual = 0.000260598, Final residual = 1.99192e-05, No Iterations 2
smoothSolver:  Solving for k, Initial residual = 0.00244353, Final residual = 0.000185351, No Iterations 2
ExecutionTime = 42.47 s  ClockTime = 49 s

forceCoeffs forceCoeffs1 write:
    Cm    = 0.159887
    Cd    = 0.415957
    Cl    = 0.0568261
    Cl(f) = 0.1883
    Cl(r) = -0.131474

Time = 29

smoothSolver:  Solving for Ux, Initial residual = 0.00196192, Final residual = 0.000164319, No Iterations 8
smoothSolver:  Solving for Uy, Initial residual = 0.0369994, Final residual = 0.00346713, No Iterations 7
smoothSolver:  Solving for Uz, Initial residual = 0.0363574, Final residual = 0.00337417, No Iterations 7
GAMG:  Solving for p, Initial residual = 0.0146112, Final residual = 6.73199e-05, No Iterations 4
time step continuity errors : sum local = 0.000136954, global = 1.12099e-06, cumulative = 0.000289553
smoothSolver:  Solving for omega, Initial residual = 0.000251028, Final residual = 1.9154e-05, No Iterations 2
smoothSolver:  Solving for k, Initial residual = 0.0024193, Final residual = 0.000182679, No Iterations 2
ExecutionTime = 43.65 s  ClockTime = 50 s

forceCoeffs forceCoeffs1 write:
    Cm    = 0.158145
    Cd    = 0.413889
    Cl    = 0.0577594
    Cl(f) = 0.187025
    Cl(r) = -0.129266

Time = 30

smoothSolver:  Solving for Ux, Initial residual = 0.00186124, Final residual = 0.000154025, No Iterations 8
smoothSolver:  Solving for Uy, Initial residual = 0.0346549, Final residual = 0.00321534, No Iterations 7
smoothSolver:  Solving for Uz, Initial residual = 0.0339788, Final residual = 0.00312648, No Iterations 7
GAMG:  Solving for p, Initial residual = 0.0141979, Final residual = 6.61168e-05, No Iterations 4
time step continuity errors : sum local = 0.000133721, global = -6.78814e-07, cumulative = 0.000288874
smoothSolver:  Solving for omega, Initial residual = 0.000242626, Final residual = 1.84538e-05, No Iterations 2
smoothSolver:  Solving for k, Initial residual = 0.00240365, Final residual = 0.000180969, No Iterations 2
ExecutionTime = 44.88 s  ClockTime = 51 s

forceCoeffs forceCoeffs1 write:
    Cm    = 0.156683
    Cd    = 0.411934
    Cl    = 0.0586722
    Cl(f) = 0.186019
    Cl(r) = -0.127347

Time = 31

smoothSolver:  Solving for Ux, Initial residual = 0.00176126, Final residual = 0.000143254, No Iterations 8
smoothSolver:  Solving for Uy, Initial residual = 0.0328425, Final residual = 0.00299521, No Iterations 7
smoothSolver:  Solving for Uz, Initial residual = 0.0319777, Final residual = 0.00289581, No Iterations 7
GAMG:  Solving for p, Initial residual = 0.0137826, Final residual = 6.51079e-05, No Iterations 4
time step continuity errors : sum local = 0.000130924, global = -2.41288e-06, cumulative = 0.000286461
smoothSolver:  Solving for omega, Initial residual = 0.000235025, Final residual = 1.78571e-05, No Iterations 2
smoothSolver:  Solving for k, Initial residual = 0.00238523, Final residual = 0.000180009, No Iterations 2
ExecutionTime = 46.18 s  ClockTime = 53 s

forceCoeffs forceCoeffs1 write:
    Cm    = 0.155501
    Cd    = 0.410302
    Cl    = 0.0596033
    Cl(f) = 0.185303
    Cl(r) = -0.1257

Time = 32

smoothSolver:  Solving for Ux, Initial residual = 0.00165923, Final residual = 0.000132432, No Iterations 8
smoothSolver:  Solving for Uy, Initial residual = 0.0314115, Final residual = 0.00281874, No Iterations 7
smoothSolver:  Solving for Uz, Initial residual = 0.0300907, Final residual = 0.00266965, No Iterations 7
GAMG:  Solving for p, Initial residual = 0.0133813, Final residual = 6.4147e-05, No Iterations 4
time step continuity errors : sum local = 0.000128327, global = -3.37755e-06, cumulative = 0.000283083
smoothSolver:  Solving for omega, Initial residual = 0.000228048, Final residual = 1.72886e-05, No Iterations 2
smoothSolver:  Solving for k, Initial residual = 0.00236008, Final residual = 0.000178958, No Iterations 2
ExecutionTime = 47.46 s  ClockTime = 54 s

forceCoeffs forceCoeffs1 write:
    Cm    = 0.154742
    Cd    = 0.409127
    Cl    = 0.0605769
    Cl(f) = 0.185031
    Cl(r) = -0.124454

Time = 33

smoothSolver:  Solving for Ux, Initial residual = 0.00156541, Final residual = 0.000123104, No Iterations 8
smoothSolver:  Solving for Uy, Initial residual = 0.0304828, Final residual = 0.00270075, No Iterations 7
smoothSolver:  Solving for Uz, Initial residual = 0.0282994, Final residual = 0.00246534, No Iterations 7
GAMG:  Solving for p, Initial residual = 0.0130381, Final residual = 6.18015e-05, No Iterations 4
time step continuity errors : sum local = 0.000123069, global = -3.32774e-06, cumulative = 0.000279756
smoothSolver:  Solving for omega, Initial residual = 0.000221561, Final residual = 1.67496e-05, No Iterations 2
smoothSolver:  Solving for k, Initial residual = 0.00233049, Final residual = 0.00017699, No Iterations 2
ExecutionTime = 48.73 s  ClockTime = 55 s

forceCoeffs forceCoeffs1 write:
    Cm    = 0.154302
    Cd    = 0.408447
    Cl    = 0.0615609
    Cl(f) = 0.185083
    Cl(r) = -0.123522

Time = 34

smoothSolver:  Solving for Ux, Initial residual = 0.00147358, Final residual = 0.000114697, No Iterations 8
smoothSolver:  Solving for Uy, Initial residual = 0.029839, Final residual = 0.0026201, No Iterations 7
smoothSolver:  Solving for Uz, Initial residual = 0.0269273, Final residual = 0.00229941, No Iterations 7
GAMG:  Solving for p, Initial residual = 0.0126993, Final residual = 5.91954e-05, No Iterations 4
time step continuity errors : sum local = 0.000117415, global = -2.07718e-06, cumulative = 0.000277679
smoothSolver:  Solving for omega, Initial residual = 0.000215817, Final residual = 1.6225e-05, No Iterations 2
smoothSolver:  Solving for k, Initial residual = 0.00230761, Final residual = 0.000174516, No Iterations 2
ExecutionTime = 50 s  ClockTime = 57 s

forceCoeffs forceCoeffs1 write:
    Cm    = 0.154112
    Cd    = 0.408111
    Cl    = 0.0626
    Cl(f) = 0.185412
    Cl(r) = -0.122812

Time = 35

smoothSolver:  Solving for Ux, Initial residual = 0.00140417, Final residual = 0.000107412, No Iterations 8
smoothSolver:  Solving for Uy, Initial residual = 0.0293958, Final residual = 0.00254013, No Iterations 7
smoothSolver:  Solving for Uz, Initial residual = 0.0258598, Final residual = 0.00215693, No Iterations 7
GAMG:  Solving for p, Initial residual = 0.012333, Final residual = 5.68402e-05, No Iterations 4
time step continuity errors : sum local = 0.000112314, global = 1.22461e-07, cumulative = 0.000277801
smoothSolver:  Solving for omega, Initial residual = 0.000210067, Final residual = 1.57354e-05, No Iterations 2
smoothSolver:  Solving for k, Initial residual = 0.00227278, Final residual = 0.000172326, No Iterations 2
ExecutionTime = 51.27 s  ClockTime = 58 s

forceCoeffs forceCoeffs1 write:
    Cm    = 0.153952
    Cd    = 0.407783
    Cl    = 0.063487
    Cl(f) = 0.185696
    Cl(r) = -0.122208

Time = 36

smoothSolver:  Solving for Ux, Initial residual = 0.00134872, Final residual = 0.000101712, No Iterations 8
smoothSolver:  Solving for Uy, Initial residual = 0.0290288, Final residual = 0.00246809, No Iterations 7
smoothSolver:  Solving for Uz, Initial residual = 0.0247928, Final residual = 0.00203169, No Iterations 7
GAMG:  Solving for p, Initial residual = 0.0119889, Final residual = 5.55926e-05, No Iterations 4
time step continuity errors : sum local = 0.000109453, global = 2.26467e-06, cumulative = 0.000280066
smoothSolver:  Solving for omega, Initial residual = 0.000205049, Final residual = 1.5289e-05, No Iterations 2
smoothSolver:  Solving for k, Initial residual = 0.00224586, Final residual = 0.000170529, No Iterations 2
ExecutionTime = 52.54 s  ClockTime = 59 s

forceCoeffs forceCoeffs1 write:
    Cm    = 0.153908
    Cd    = 0.407604
    Cl    = 0.0642059
    Cl(f) = 0.186011
    Cl(r) = -0.121805

Time = 37

smoothSolver:  Solving for Ux, Initial residual = 0.00129434, Final residual = 0.000128336, No Iterations 7
smoothSolver:  Solving for Uy, Initial residual = 0.0286341, Final residual = 0.00241026, No Iterations 7
smoothSolver:  Solving for Uz, Initial residual = 0.0238119, Final residual = 0.00192699, No Iterations 7
GAMG:  Solving for p, Initial residual = 0.0116379, Final residual = 5.55822e-05, No Iterations 4
time step continuity errors : sum local = 0.000109059, global = 3.845e-06, cumulative = 0.000283911
smoothSolver:  Solving for omega, Initial residual = 0.000198738, Final residual = 1.47933e-05, No Iterations 2
smoothSolver:  Solving for k, Initial residual = 0.00220563, Final residual = 0.000168061, No Iterations 2
ExecutionTime = 53.8 s  ClockTime = 61 s

forceCoeffs forceCoeffs1 write:
    Cm    = 0.153995
    Cd    = 0.407452
    Cl    = 0.0645992
    Cl(f) = 0.186294
    Cl(r) = -0.121695

Time = 38

smoothSolver:  Solving for Ux, Initial residual = 0.00124292, Final residual = 0.000122499, No Iterations 7
smoothSolver:  Solving for Uy, Initial residual = 0.0279532, Final residual = 0.00233924, No Iterations 7
smoothSolver:  Solving for Uz, Initial residual = 0.0227739, Final residual = 0.00183056, No Iterations 7
GAMG:  Solving for p, Initial residual = 0.0112171, Final residual = 5.46196e-05, No Iterations 4
time step continuity errors : sum local = 0.000106876, global = 3.8963e-06, cumulative = 0.000287807
smoothSolver:  Solving for omega, Initial residual = 0.000193069, Final residual = 1.43331e-05, No Iterations 2
smoothSolver:  Solving for k, Initial residual = 0.00216103, Final residual = 0.000165155, No Iterations 2
ExecutionTime = 55.05 s  ClockTime = 62 s

forceCoeffs forceCoeffs1 write:
    Cm    = 0.15426
    Cd    = 0.407335
    Cl    = 0.064493
    Cl(f) = 0.186506
    Cl(r) = -0.122013

Time = 39

smoothSolver:  Solving for Ux, Initial residual = 0.00119389, Final residual = 0.000117934, No Iterations 7
smoothSolver:  Solving for Uy, Initial residual = 0.0271313, Final residual = 0.00227331, No Iterations 7
smoothSolver:  Solving for Uz, Initial residual = 0.0217797, Final residual = 0.00175231, No Iterations 7
GAMG:  Solving for p, Initial residual = 0.0107898, Final residual = 5.30514e-05, No Iterations 4
time step continuity errors : sum local = 0.000103548, global = 3.35896e-06, cumulative = 0.000291166
smoothSolver:  Solving for omega, Initial residual = 0.000187314, Final residual = 1.39204e-05, No Iterations 2
smoothSolver:  Solving for k, Initial residual = 0.00211242, Final residual = 0.000162814, No Iterations 2
ExecutionTime = 56.3 s  ClockTime = 63 s

forceCoeffs forceCoeffs1 write:
    Cm    = 0.154533
    Cd    = 0.407
    Cl    = 0.0640875
    Cl(f) = 0.186576
    Cl(r) = -0.122489

Time = 40

smoothSolver:  Solving for Ux, Initial residual = 0.00115001, Final residual = 0.000113992, No Iterations 7
smoothSolver:  Solving for Uy, Initial residual = 0.0262915, Final residual = 0.00219844, No Iterations 7
smoothSolver:  Solving for Uz, Initial residual = 0.0209549, Final residual = 0.00169335, No Iterations 7
GAMG:  Solving for p, Initial residual = 0.0104336, Final residual = 5.19516e-05, No Iterations 4
time step continuity errors : sum local = 0.000101174, global = 3.13031e-06, cumulative = 0.000294296
smoothSolver:  Solving for omega, Initial residual = 0.000180914, Final residual = 1.34848e-05, No Iterations 2
smoothSolver:  Solving for k, Initial residual = 0.00206166, Final residual = 0.000160339, No Iterations 2
ExecutionTime = 57.57 s  ClockTime = 64 s

forceCoeffs forceCoeffs1 write:
    Cm    = 0.154738
    Cd    = 0.406418
    Cl    = 0.0632829
    Cl(f) = 0.186379
    Cl(r) = -0.123096

Time = 41

smoothSolver:  Solving for Ux, Initial residual = 0.00111015, Final residual = 0.000110463, No Iterations 7
smoothSolver:  Solving for Uy, Initial residual = 0.0253532, Final residual = 0.00210181, No Iterations 7
smoothSolver:  Solving for Uz, Initial residual = 0.0202221, Final residual = 0.00163872, No Iterations 7
GAMG:  Solving for p, Initial residual = 0.0101267, Final residual = 5.08815e-05, No Iterations 4
time step continuity errors : sum local = 9.89073e-05, global = 2.53444e-06, cumulative = 0.000296831
smoothSolver:  Solving for omega, Initial residual = 0.000174438, Final residual = 1.30262e-05, No Iterations 2
smoothSolver:  Solving for k, Initial residual = 0.00202026, Final residual = 0.000158026, No Iterations 2
ExecutionTime = 58.83 s  ClockTime = 66 s

forceCoeffs forceCoeffs1 write:
    Cm    = 0.154671
    Cd    = 0.405573
    Cl    = 0.0625095
    Cl(f) = 0.185926
    Cl(r) = -0.123417

Time = 42

smoothSolver:  Solving for Ux, Initial residual = 0.00107422, Final residual = 8.12598e-05, No Iterations 8
smoothSolver:  Solving for Uy, Initial residual = 0.0243304, Final residual = 0.00202836, No Iterations 7
smoothSolver:  Solving for Uz, Initial residual = 0.0196622, Final residual = 0.00159798, No Iterations 7
GAMG:  Solving for p, Initial residual = 0.00986248, Final residual = 4.9503e-05, No Iterations 4
time step continuity errors : sum local = 9.60848e-05, global = 7.47125e-07, cumulative = 0.000297578
smoothSolver:  Solving for omega, Initial residual = 0.000168768, Final residual = 1.25799e-05, No Iterations 2
smoothSolver:  Solving for k, Initial residual = 0.00198979, Final residual = 0.000156143, No Iterations 2
ExecutionTime = 60.08 s  ClockTime = 67 s

forceCoeffs forceCoeffs1 write:
    Cm    = 0.154489
    Cd    = 0.404713
    Cl    = 0.0618107
    Cl(f) = 0.185395
    Cl(r) = -0.123584

Time = 43

smoothSolver:  Solving for Ux, Initial residual = 0.00103561, Final residual = 7.8808e-05, No Iterations 8
smoothSolver:  Solving for Uy, Initial residual = 0.0232442, Final residual = 0.00196521, No Iterations 7
smoothSolver:  Solving for Uz, Initial residual = 0.0191375, Final residual = 0.0015724, No Iterations 7
GAMG:  Solving for p, Initial residual = 0.00958951, Final residual = 4.79331e-05, No Iterations 4
time step continuity errors : sum local = 9.29063e-05, global = -1.11571e-06, cumulative = 0.000296462
smoothSolver:  Solving for omega, Initial residual = 0.000163908, Final residual = 1.21599e-05, No Iterations 2
smoothSolver:  Solving for k, Initial residual = 0.00195909, Final residual = 0.000153916, No Iterations 2
ExecutionTime = 61.35 s  ClockTime = 68 s

forceCoeffs forceCoeffs1 write:
    Cm    = 0.154319
    Cd    = 0.404151
    Cl    = 0.0614053
    Cl(f) = 0.185022
    Cl(r) = -0.123616

Time = 44

smoothSolver:  Solving for Ux, Initial residual = 0.00100173, Final residual = 7.64741e-05, No Iterations 8
smoothSolver:  Solving for Uy, Initial residual = 0.0221495, Final residual = 0.00189886, No Iterations 7
smoothSolver:  Solving for Uz, Initial residual = 0.0185599, Final residual = 0.00155964, No Iterations 7
GAMG:  Solving for p, Initial residual = 0.00928798, Final residual = 4.71863e-05, No Iterations 4
time step continuity errors : sum local = 9.13284e-05, global = -3.00589e-06, cumulative = 0.000293456
smoothSolver:  Solving for omega, Initial residual = 0.000159647, Final residual = 1.17835e-05, No Iterations 2
smoothSolver:  Solving for k, Initial residual = 0.00192415, Final residual = 0.000151087, No Iterations 2
ExecutionTime = 62.69 s  ClockTime = 70 s

forceCoeffs forceCoeffs1 write:
    Cm    = 0.154208
    Cd    = 0.40398
    Cl    = 0.0613436
    Cl(f) = 0.18488
    Cl(r) = -0.123536

Time = 45

smoothSolver:  Solving for Ux, Initial residual = 0.000975214, Final residual = 7.55838e-05, No Iterations 8
smoothSolver:  Solving for Uy, Initial residual = 0.0212483, Final residual = 0.00185556, No Iterations 7
smoothSolver:  Solving for Uz, Initial residual = 0.0179643, Final residual = 0.00155115, No Iterations 7
GAMG:  Solving for p, Initial residual = 0.00899163, Final residual = 4.80658e-05, No Iterations 4
time step continuity errors : sum local = 9.2863e-05, global = -4.62693e-06, cumulative = 0.000288829
smoothSolver:  Solving for omega, Initial residual = 0.000154994, Final residual = 1.1421e-05, No Iterations 2
smoothSolver:  Solving for k, Initial residual = 0.001884, Final residual = 0.000147741, No Iterations 2
ExecutionTime = 64.01 s  ClockTime = 71 s

forceCoeffs forceCoeffs1 write:
    Cm    = 0.154092
    Cd    = 0.404106
    Cl    = 0.0616942
    Cl(f) = 0.18494
    Cl(r) = -0.123245

Time = 46

smoothSolver:  Solving for Ux, Initial residual = 0.000956432, Final residual = 7.54125e-05, No Iterations 8
smoothSolver:  Solving for Uy, Initial residual = 0.0206029, Final residual = 0.00182009, No Iterations 7
smoothSolver:  Solving for Uz, Initial residual = 0.0174858, Final residual = 0.00154024, No Iterations 7
GAMG:  Solving for p, Initial residual = 0.00874879, Final residual = 4.99287e-05, No Iterations 4
time step continuity errors : sum local = 9.62719e-05, global = -5.93544e-06, cumulative = 0.000282894
smoothSolver:  Solving for omega, Initial residual = 0.000150588, Final residual = 1.10515e-05, No Iterations 2
smoothSolver:  Solving for k, Initial residual = 0.00185165, Final residual = 0.0001449, No Iterations 2
ExecutionTime = 65.56 s  ClockTime = 73 s

forceCoeffs forceCoeffs1 write:
    Cm    = 0.153972
    Cd    = 0.40441
    Cl    = 0.0623461
    Cl(f) = 0.185145
    Cl(r) = -0.122799

Time = 47

smoothSolver:  Solving for Ux, Initial residual = 0.000942309, Final residual = 7.51881e-05, No Iterations 8
smoothSolver:  Solving for Uy, Initial residual = 0.0200994, Final residual = 0.00177569, No Iterations 7
smoothSolver:  Solving for Uz, Initial residual = 0.0170703, Final residual = 0.00151266, No Iterations 7
GAMG:  Solving for p, Initial residual = 0.00851062, Final residual = 4.9295e-05, No Iterations 4
time step continuity errors : sum local = 9.48583e-05, global = -6.27084e-06, cumulative = 0.000276623
smoothSolver:  Solving for omega, Initial residual = 0.000146071, Final residual = 1.0711e-05, No Iterations 2
smoothSolver:  Solving for k, Initial residual = 0.00182804, Final residual = 0.000143105, No Iterations 2
ExecutionTime = 66.79 s  ClockTime = 74 s

forceCoeffs forceCoeffs1 write:
    Cm    = 0.15381
    Cd    = 0.404752
    Cl    = 0.0632273
    Cl(f) = 0.185423
    Cl(r) = -0.122196

Time = 48

smoothSolver:  Solving for Ux, Initial residual = 0.000934652, Final residual = 7.46163e-05, No Iterations 8
smoothSolver:  Solving for Uy, Initial residual = 0.0197227, Final residual = 0.00173879, No Iterations 7
smoothSolver:  Solving for Uz, Initial residual = 0.0166979, Final residual = 0.00146798, No Iterations 7
GAMG:  Solving for p, Initial residual = 0.00830509, Final residual = 4.53336e-05, No Iterations 4
time step continuity errors : sum local = 8.70932e-05, global = -5.48975e-06, cumulative = 0.000271133
smoothSolver:  Solving for omega, Initial residual = 0.000141756, Final residual = 1.0348e-05, No Iterations 2
smoothSolver:  Solving for k, Initial residual = 0.00180253, Final residual = 0.000140918, No Iterations 2
ExecutionTime = 68.08 s  ClockTime = 76 s

forceCoeffs forceCoeffs1 write:
    Cm    = 0.153681
    Cd    = 0.405129
    Cl    = 0.0641318
    Cl(f) = 0.185747
    Cl(r) = -0.121616

Time = 49

smoothSolver:  Solving for Ux, Initial residual = 0.000925969, Final residual = 7.3075e-05, No Iterations 8
smoothSolver:  Solving for Uy, Initial residual = 0.0193421, Final residual = 0.00168317, No Iterations 7
smoothSolver:  Solving for Uz, Initial residual = 0.0162586, Final residual = 0.0014053, No Iterations 7
GAMG:  Solving for p, Initial residual = 0.00809041, Final residual = 4.13e-05, No Iterations 4
time step continuity errors : sum local = 7.92643e-05, global = -4.62582e-06, cumulative = 0.000266507
smoothSolver:  Solving for omega, Initial residual = 0.000137479, Final residual = 1.00055e-05, No Iterations 2
smoothSolver:  Solving for k, Initial residual = 0.00176585, Final residual = 0.000138658, No Iterations 2
ExecutionTime = 69.4 s  ClockTime = 77 s

forceCoeffs forceCoeffs1 write:
    Cm    = 0.153618
    Cd    = 0.405511
    Cl    = 0.0648782
    Cl(f) = 0.186057
    Cl(r) = -0.121179

Time = 50

smoothSolver:  Solving for Ux, Initial residual = 0.00090991, Final residual = 7.12529e-05, No Iterations 8
smoothSolver:  Solving for Uy, Initial residual = 0.0187892, Final residual = 0.00161217, No Iterations 7
smoothSolver:  Solving for Uz, Initial residual = 0.0158111, Final residual = 0.0013416, No Iterations 7
GAMG:  Solving for p, Initial residual = 0.00788012, Final residual = 3.85679e-05, No Iterations 4
time step continuity errors : sum local = 7.39629e-05, global = -3.82828e-06, cumulative = 0.000262679
smoothSolver:  Solving for omega, Initial residual = 0.00013352, Final residual = 9.73751e-06, No Iterations 2
smoothSolver:  Solving for k, Initial residual = 0.00171658, Final residual = 0.000136131, No Iterations 2
ExecutionTime = 70.7 s  ClockTime = 78 s

forceCoeffs forceCoeffs1 write:
    Cm    = 0.153665
    Cd    = 0.405937
    Cl    = 0.0653214
    Cl(f) = 0.186326
    Cl(r) = -0.121005

Time = 51

smoothSolver:  Solving for Ux, Initial residual = 0.000889093, Final residual = 6.97993e-05, No Iterations 8
smoothSolver:  Solving for Uy, Initial residual = 0.0181392, Final residual = 0.00154017, No Iterations 7
smoothSolver:  Solving for Uz, Initial residual = 0.0154025, Final residual = 0.00129826, No Iterations 7
GAMG:  Solving for p, Initial residual = 0.00763366, Final residual = 3.64863e-05, No Iterations 4
time step continuity errors : sum local = 6.99199e-05, global = -2.91115e-06, cumulative = 0.000259768
smoothSolver:  Solving for omega, Initial residual = 0.000129374, Final residual = 9.47578e-06, No Iterations 2
smoothSolver:  Solving for k, Initial residual = 0.00166358, Final residual = 0.000133575, No Iterations 2
ExecutionTime = 72.01 s  ClockTime = 79 s

forceCoeffs forceCoeffs1 write:
    Cm    = 0.153795
    Cd    = 0.406402
    Cl    = 0.065461
    Cl(f) = 0.186526
    Cl(r) = -0.121065

Time = 52

smoothSolver:  Solving for Ux, Initial residual = 0.00086752, Final residual = 6.85446e-05, No Iterations 8
smoothSolver:  Solving for Uy, Initial residual = 0.0175122, Final residual = 0.00147158, No Iterations 7
smoothSolver:  Solving for Uz, Initial residual = 0.0150061, Final residual = 0.00127271, No Iterations 7
GAMG:  Solving for p, Initial residual = 0.00739338, Final residual = 3.47602e-05, No Iterations 4
time step continuity errors : sum local = 6.65695e-05, global = -1.79383e-06, cumulative = 0.000257974
smoothSolver:  Solving for omega, Initial residual = 0.000124641, Final residual = 9.15269e-06, No Iterations 2
smoothSolver:  Solving for k, Initial residual = 0.00161149, Final residual = 0.000130969, No Iterations 2
ExecutionTime = 73.36 s  ClockTime = 81 s

forceCoeffs forceCoeffs1 write:
    Cm    = 0.153997
    Cd    = 0.406904
    Cl    = 0.0654
    Cl(f) = 0.186697
    Cl(r) = -0.121297

Time = 53

smoothSolver:  Solving for Ux, Initial residual = 0.000846815, Final residual = 6.67376e-05, No Iterations 8
smoothSolver:  Solving for Uy, Initial residual = 0.0169394, Final residual = 0.00142026, No Iterations 7
smoothSolver:  Solving for Uz, Initial residual = 0.014636, Final residual = 0.00125274, No Iterations 7
GAMG:  Solving for p, Initial residual = 0.00713224, Final residual = 3.30927e-05, No Iterations 4
time step continuity errors : sum local = 6.33485e-05, global = -7.17976e-07, cumulative = 0.000257256
smoothSolver:  Solving for omega, Initial residual = 0.000119766, Final residual = 8.81239e-06, No Iterations 2
smoothSolver:  Solving for k, Initial residual = 0.00156201, Final residual = 0.000128113, No Iterations 2
ExecutionTime = 74.64 s  ClockTime = 82 s

forceCoeffs forceCoeffs1 write:
    Cm    = 0.154219
    Cd    = 0.407442
    Cl    = 0.0652436
    Cl(f) = 0.18684
    Cl(r) = -0.121597

Time = 54

smoothSolver:  Solving for Ux, Initial residual = 0.00082587, Final residual = 6.44723e-05, No Iterations 8
smoothSolver:  Solving for Uy, Initial residual = 0.0163892, Final residual = 0.00137884, No Iterations 7
smoothSolver:  Solving for Uz, Initial residual = 0.0143087, Final residual = 0.00124065, No Iterations 7
GAMG:  Solving for p, Initial residual = 0.0068875, Final residual = 3.11698e-05, No Iterations 4
time step continuity errors : sum local = 5.96483e-05, global = 1.73785e-07, cumulative = 0.00025743
smoothSolver:  Solving for omega, Initial residual = 0.000115203, Final residual = 8.49406e-06, No Iterations 2
smoothSolver:  Solving for k, Initial residual = 0.00151743, Final residual = 0.000125469, No Iterations 2
ExecutionTime = 75.92 s  ClockTime = 83 s

forceCoeffs forceCoeffs1 write:
    Cm    = 0.154418
    Cd    = 0.407972
    Cl    = 0.0650229
    Cl(f) = 0.18693
    Cl(r) = -0.121907

Time = 55

smoothSolver:  Solving for Ux, Initial residual = 0.00080429, Final residual = 6.19866e-05, No Iterations 8
smoothSolver:  Solving for Uy, Initial residual = 0.0158753, Final residual = 0.00133605, No Iterations 7
smoothSolver:  Solving for Uz, Initial residual = 0.0139574, Final residual = 0.0012214, No Iterations 7
GAMG:  Solving for p, Initial residual = 0.00669105, Final residual = 2.90837e-05, No Iterations 4
time step continuity errors : sum local = 5.56523e-05, global = 1.01355e-06, cumulative = 0.000258444
smoothSolver:  Solving for omega, Initial residual = 0.000111025, Final residual = 8.18933e-06, No Iterations 2
smoothSolver:  Solving for k, Initial residual = 0.00147938, Final residual = 0.00012303, No Iterations 2
ExecutionTime = 77.21 s  ClockTime = 85 s

forceCoeffs forceCoeffs1 write:
    Cm    = 0.154514
    Cd    = 0.408441
    Cl    = 0.0648257
    Cl(f) = 0.186927
    Cl(r) = -0.122101

Time = 56

smoothSolver:  Solving for Ux, Initial residual = 0.000784126, Final residual = 5.92346e-05, No Iterations 8
smoothSolver:  Solving for Uy, Initial residual = 0.0153838, Final residual = 0.00128419, No Iterations 7
smoothSolver:  Solving for Uz, Initial residual = 0.0136018, Final residual = 0.00118422, No Iterations 7
GAMG:  Solving for p, Initial residual = 0.0065422, Final residual = 2.76997e-05, No Iterations 4
time step continuity errors : sum local = 5.30128e-05, global = 1.50145e-06, cumulative = 0.000259945
smoothSolver:  Solving for omega, Initial residual = 0.000107356, Final residual = 7.89874e-06, No Iterations 2
smoothSolver:  Solving for k, Initial residual = 0.00145256, Final residual = 0.000120587, No Iterations 2
ExecutionTime = 78.49 s  ClockTime = 86 s

forceCoeffs forceCoeffs1 write:
    Cm    = 0.15454
    Cd    = 0.408832
    Cl    = 0.064729
    Cl(f) = 0.186905
    Cl(r) = -0.122176

Time = 57

smoothSolver:  Solving for Ux, Initial residual = 0.000758615, Final residual = 7.56945e-05, No Iterations 7
smoothSolver:  Solving for Uy, Initial residual = 0.0149992, Final residual = 0.00122945, No Iterations 7
smoothSolver:  Solving for Uz, Initial residual = 0.0132116, Final residual = 0.00113686, No Iterations 7
GAMG:  Solving for p, Initial residual = 0.00642601, Final residual = 2.74563e-05, No Iterations 4
time step continuity errors : sum local = 5.25679e-05, global = 1.79324e-06, cumulative = 0.000261738
smoothSolver:  Solving for omega, Initial residual = 0.000104042, Final residual = 7.64087e-06, No Iterations 2
smoothSolver:  Solving for k, Initial residual = 0.00142644, Final residual = 0.000118245, No Iterations 2
ExecutionTime = 79.76 s  ClockTime = 87 s

forceCoeffs forceCoeffs1 write:
    Cm    = 0.154486
    Cd    = 0.409078
    Cl    = 0.064696
    Cl(f) = 0.186834
    Cl(r) = -0.122138

Time = 58

smoothSolver:  Solving for Ux, Initial residual = 0.000729935, Final residual = 7.27963e-05, No Iterations 7
smoothSolver:  Solving for Uy, Initial residual = 0.0146751, Final residual = 0.00117487, No Iterations 7
smoothSolver:  Solving for Uz, Initial residual = 0.0128398, Final residual = 0.00108319, No Iterations 7
GAMG:  Solving for p, Initial residual = 0.00631439, Final residual = 2.77595e-05, No Iterations 4
time step continuity errors : sum local = 5.31778e-05, global = 1.78878e-06, cumulative = 0.000263527
smoothSolver:  Solving for omega, Initial residual = 0.000101061, Final residual = 7.40732e-06, No Iterations 2
smoothSolver:  Solving for k, Initial residual = 0.00139919, Final residual = 0.000115894, No Iterations 2
ExecutionTime = 81.05 s  ClockTime = 89 s

forceCoeffs forceCoeffs1 write:
    Cm    = 0.154369
    Cd    = 0.409133
    Cl    = 0.0646331
    Cl(f) = 0.186686
    Cl(r) = -0.122052

Time = 59

smoothSolver:  Solving for Ux, Initial residual = 0.000703644, Final residual = 5.32546e-05, No Iterations 8
smoothSolver:  Solving for Uy, Initial residual = 0.0143476, Final residual = 0.00113155, No Iterations 7
smoothSolver:  Solving for Uz, Initial residual = 0.0125251, Final residual = 0.00104179, No Iterations 7
GAMG:  Solving for p, Initial residual = 0.00618164, Final residual = 2.77215e-05, No Iterations 4
time step continuity errors : sum local = 5.31405e-05, global = 1.43839e-06, cumulative = 0.000264965
smoothSolver:  Solving for omega, Initial residual = 9.80737e-05, Final residual = 7.17321e-06, No Iterations 2
smoothSolver:  Solving for k, Initial residual = 0.00137322, Final residual = 0.000113454, No Iterations 2
ExecutionTime = 82.33 s  ClockTime = 90 s

forceCoeffs forceCoeffs1 write:
    Cm    = 0.15423
    Cd    = 0.40906
    Cl    = 0.0644646
    Cl(f) = 0.186462
    Cl(r) = -0.121998

Time = 60

smoothSolver:  Solving for Ux, Initial residual = 0.000675018, Final residual = 5.14318e-05, No Iterations 8
smoothSolver:  Solving for Uy, Initial residual = 0.0139766, Final residual = 0.00109988, No Iterations 7
smoothSolver:  Solving for Uz, Initial residual = 0.0122565, Final residual = 0.00101551, No Iterations 7
GAMG:  Solving for p, Initial residual = 0.0060175, Final residual = 2.74793e-05, No Iterations 4
time step continuity errors : sum local = 5.272e-05, global = 1.01773e-06, cumulative = 0.000265983
smoothSolver:  Solving for omega, Initial residual = 9.49954e-05, Final residual = 6.95392e-06, No Iterations 2
smoothSolver:  Solving for k, Initial residual = 0.00134421, Final residual = 0.000111137, No Iterations 2
ExecutionTime = 83.72 s  ClockTime = 91 s

forceCoeffs forceCoeffs1 write:
    Cm    = 0.154138
    Cd    = 0.409004
    Cl    = 0.0642553
    Cl(f) = 0.186266
    Cl(r) = -0.122011

Time = 61

smoothSolver:  Solving for Ux, Initial residual = 0.000648107, Final residual = 4.93492e-05, No Iterations 8
smoothSolver:  Solving for Uy, Initial residual = 0.0135986, Final residual = 0.00107057, No Iterations 7
smoothSolver:  Solving for Uz, Initial residual = 0.0120044, Final residual = 0.000992832, No Iterations 7
GAMG:  Solving for p, Initial residual = 0.00580574, Final residual = 2.64697e-05, No Iterations 4
time step continuity errors : sum local = 5.08188e-05, global = 3.66992e-07, cumulative = 0.00026635
smoothSolver:  Solving for omega, Initial residual = 9.16138e-05, Final residual = 6.736e-06, No Iterations 2
smoothSolver:  Solving for k, Initial residual = 0.00131427, Final residual = 0.000109001, No Iterations 2
ExecutionTime = 85.03 s  ClockTime = 93 s

forceCoeffs forceCoeffs1 write:
    Cm    = 0.154057
    Cd    = 0.408975
    Cl    = 0.0640631
    Cl(f) = 0.186088
    Cl(r) = -0.122025

Time = 62

smoothSolver:  Solving for Ux, Initial residual = 0.000622048, Final residual = 4.72006e-05, No Iterations 8
smoothSolver:  Solving for Uy, Initial residual = 0.0131555, Final residual = 0.0010402, No Iterations 7
smoothSolver:  Solving for Uz, Initial residual = 0.0116608, Final residual = 0.000962492, No Iterations 7
GAMG:  Solving for p, Initial residual = 0.0055554, Final residual = 2.4833e-05, No Iterations 4
time step continuity errors : sum local = 4.77036e-05, global = -5.42533e-07, cumulative = 0.000265808
smoothSolver:  Solving for omega, Initial residual = 8.81645e-05, Final residual = 6.5177e-06, No Iterations 2
smoothSolver:  Solving for k, Initial residual = 0.00128346, Final residual = 0.000106876, No Iterations 2
ExecutionTime = 86.33 s  ClockTime = 94 s

forceCoeffs forceCoeffs1 write:
    Cm    = 0.154041
    Cd    = 0.409045
    Cl    = 0.0639605
    Cl(f) = 0.186021
    Cl(r) = -0.122061

Time = 63

smoothSolver:  Solving for Ux, Initial residual = 0.000595334, Final residual = 4.52904e-05, No Iterations 8
smoothSolver:  Solving for Uy, Initial residual = 0.0126802, Final residual = 0.00100159, No Iterations 7
smoothSolver:  Solving for Uz, Initial residual = 0.0112707, Final residual = 0.000926254, No Iterations 7
GAMG:  Solving for p, Initial residual = 0.00529794, Final residual = 2.33111e-05, No Iterations 4
time step continuity errors : sum local = 4.48018e-05, global = -1.46611e-06, cumulative = 0.000264341
smoothSolver:  Solving for omega, Initial residual = 8.48812e-05, Final residual = 6.30681e-06, No Iterations 2
smoothSolver:  Solving for k, Initial residual = 0.00125451, Final residual = 0.000104904, No Iterations 2
ExecutionTime = 87.64 s  ClockTime = 95 s

forceCoeffs forceCoeffs1 write:
    Cm    = 0.154057
    Cd    = 0.409237
    Cl    = 0.0639846
    Cl(f) = 0.186049
    Cl(r) = -0.122065

Time = 64

smoothSolver:  Solving for Ux, Initial residual = 0.00057065, Final residual = 4.36901e-05, No Iterations 8
smoothSolver:  Solving for Uy, Initial residual = 0.0121963, Final residual = 0.000960927, No Iterations 7
smoothSolver:  Solving for Uz, Initial residual = 0.0108477, Final residual = 0.000887126, No Iterations 7
GAMG:  Solving for p, Initial residual = 0.00505593, Final residual = 2.21124e-05, No Iterations 4
time step continuity errors : sum local = 4.25038e-05, global = -2.14095e-06, cumulative = 0.000262201
smoothSolver:  Solving for omega, Initial residual = 8.20029e-05, Final residual = 6.11342e-06, No Iterations 2
smoothSolver:  Solving for k, Initial residual = 0.00122613, Final residual = 0.000103042, No Iterations 2
ExecutionTime = 88.92 s  ClockTime = 96 s

forceCoeffs forceCoeffs1 write:
    Cm    = 0.15416
    Cd    = 0.409531
    Cl    = 0.0641373
    Cl(f) = 0.186229
    Cl(r) = -0.122092

Time = 65

smoothSolver:  Solving for Ux, Initial residual = 0.000548696, Final residual = 4.2092e-05, No Iterations 8
smoothSolver:  Solving for Uy, Initial residual = 0.0117289, Final residual = 0.00092668, No Iterations 7
smoothSolver:  Solving for Uz, Initial residual = 0.0104589, Final residual = 0.000853537, No Iterations 7
GAMG:  Solving for p, Initial residual = 0.00485417, Final residual = 2.10565e-05, No Iterations 4
time step continuity errors : sum local = 4.04736e-05, global = -2.08918e-06, cumulative = 0.000260111
smoothSolver:  Solving for omega, Initial residual = 7.91999e-05, Final residual = 5.92851e-06, No Iterations 2
smoothSolver:  Solving for k, Initial residual = 0.0011962, Final residual = 0.000100956, No Iterations 2
ExecutionTime = 90.22 s  ClockTime = 98 s

forceCoeffs forceCoeffs1 write:
    Cm    = 0.154291
    Cd    = 0.409915
    Cl    = 0.0643936
    Cl(f) = 0.186488
    Cl(r) = -0.122095

Time = 66

smoothSolver:  Solving for Ux, Initial residual = 0.000530812, Final residual = 4.06898e-05, No Iterations 8
smoothSolver:  Solving for Uy, Initial residual = 0.011308, Final residual = 0.000899935, No Iterations 7
smoothSolver:  Solving for Uz, Initial residual = 0.0101448, Final residual = 0.000830077, No Iterations 7
GAMG:  Solving for p, Initial residual = 0.00467435, Final residual = 1.99911e-05, No Iterations 4
time step continuity errors : sum local = 3.84189e-05, global = -1.46827e-06, cumulative = 0.000258643
smoothSolver:  Solving for omega, Initial residual = 7.67214e-05, Final residual = 5.73986e-06, No Iterations 2
smoothSolver:  Solving for k, Initial residual = 0.00116382, Final residual = 9.86258e-05, No Iterations 2
ExecutionTime = 91.52 s  ClockTime = 99 s

forceCoeffs forceCoeffs1 write:
    Cm    = 0.154504
    Cd    = 0.410369
    Cl    = 0.0647654
    Cl(f) = 0.186887
    Cl(r) = -0.122121

Time = 67

smoothSolver:  Solving for Ux, Initial residual = 0.000515572, Final residual = 3.93693e-05, No Iterations 8
smoothSolver:  Solving for Uy, Initial residual = 0.0109286, Final residual = 0.000876744, No Iterations 7
smoothSolver:  Solving for Uz, Initial residual = 0.00984159, Final residual = 0.000815432, No Iterations 7
GAMG:  Solving for p, Initial residual = 0.00451328, Final residual = 1.91323e-05, No Iterations 4
time step continuity errors : sum local = 3.67656e-05, global = -7.11918e-07, cumulative = 0.000257931
smoothSolver:  Solving for omega, Initial residual = 7.4258e-05, Final residual = 5.56185e-06, No Iterations 2
smoothSolver:  Solving for k, Initial residual = 0.00113318, Final residual = 9.62351e-05, No Iterations 2
ExecutionTime = 92.81 s  ClockTime = 100 s

forceCoeffs forceCoeffs1 write:
    Cm    = 0.154737
    Cd    = 0.410883
    Cl    = 0.0651538
    Cl(f) = 0.187314
    Cl(r) = -0.12216

Time = 68

smoothSolver:  Solving for Ux, Initial residual = 0.000500508, Final residual = 3.81706e-05, No Iterations 8
smoothSolver:  Solving for Uy, Initial residual = 0.0106592, Final residual = 0.000861541, No Iterations 7
smoothSolver:  Solving for Uz, Initial residual = 0.00959462, Final residual = 0.00080661, No Iterations 7
GAMG:  Solving for p, Initial residual = 0.0043588, Final residual = 1.87533e-05, No Iterations 4
time step continuity errors : sum local = 3.60357e-05, global = -3.12637e-08, cumulative = 0.0002579
smoothSolver:  Solving for omega, Initial residual = 7.21034e-05, Final residual = 5.38938e-06, No Iterations 2
smoothSolver:  Solving for k, Initial residual = 0.00110322, Final residual = 9.3925e-05, No Iterations 2
ExecutionTime = 94.11 s  ClockTime = 102 s

forceCoeffs forceCoeffs1 write:
    Cm    = 0.155031
    Cd    = 0.411462
    Cl    = 0.0655217
    Cl(f) = 0.187792
    Cl(r) = -0.12227

Time = 69

smoothSolver:  Solving for Ux, Initial residual = 0.000484261, Final residual = 3.66714e-05, No Iterations 8
smoothSolver:  Solving for Uy, Initial residual = 0.0104197, Final residual = 0.000848366, No Iterations 7
smoothSolver:  Solving for Uz, Initial residual = 0.00934148, Final residual = 0.00079498, No Iterations 7
GAMG:  Solving for p, Initial residual = 0.00424597, Final residual = 1.88154e-05, No Iterations 4
time step continuity errors : sum local = 3.61582e-05, global = 4.76309e-07, cumulative = 0.000258376
smoothSolver:  Solving for omega, Initial residual = 7.01315e-05, Final residual = 5.23632e-06, No Iterations 2
smoothSolver:  Solving for k, Initial residual = 0.00107311, Final residual = 9.15604e-05, No Iterations 2
ExecutionTime = 95.39 s  ClockTime = 103 s

forceCoeffs forceCoeffs1 write:
    Cm    = 0.155257
    Cd    = 0.411988
    Cl    = 0.0657703
    Cl(f) = 0.188143
    Cl(r) = -0.122372

Time = 70

smoothSolver:  Solving for Ux, Initial residual = 0.000466127, Final residual = 4.64585e-05, No Iterations 7
smoothSolver:  Solving for Uy, Initial residual = 0.010168, Final residual = 0.000830202, No Iterations 7
smoothSolver:  Solving for Uz, Initial residual = 0.00904832, Final residual = 0.000773076, No Iterations 7
GAMG:  Solving for p, Initial residual = 0.00413854, Final residual = 1.89724e-05, No Iterations 4
time step continuity errors : sum local = 3.64679e-05, global = 9.16816e-07, cumulative = 0.000259293
smoothSolver:  Solving for omega, Initial residual = 6.82133e-05, Final residual = 5.08688e-06, No Iterations 2
smoothSolver:  Solving for k, Initial residual = 0.00104538, Final residual = 8.92274e-05, No Iterations 2
ExecutionTime = 96.67 s  ClockTime = 104 s

forceCoeffs forceCoeffs1 write:
    Cm    = 0.155422
    Cd    = 0.412401
    Cl    = 0.0659695
    Cl(f) = 0.188407
    Cl(r) = -0.122438

Time = 71

smoothSolver:  Solving for Ux, Initial residual = 0.000447879, Final residual = 4.43275e-05, No Iterations 7
smoothSolver:  Solving for Uy, Initial residual = 0.009819, Final residual = 0.000798262, No Iterations 7
smoothSolver:  Solving for Uz, Initial residual = 0.00871505, Final residual = 0.000739052, No Iterations 7
GAMG:  Solving for p, Initial residual = 0.00405423, Final residual = 1.9166e-05, No Iterations 4
time step continuity errors : sum local = 3.68558e-05, global = 1.40328e-06, cumulative = 0.000260696
smoothSolver:  Solving for omega, Initial residual = 6.64671e-05, Final residual = 4.95306e-06, No Iterations 2
smoothSolver:  Solving for k, Initial residual = 0.00102157, Final residual = 8.70134e-05, No Iterations 2
ExecutionTime = 97.95 s  ClockTime = 106 s

forceCoeffs forceCoeffs1 write:
    Cm    = 0.155477
    Cd    = 0.412693
    Cl    = 0.0659367
    Cl(f) = 0.188445
    Cl(r) = -0.122508

Time = 72

smoothSolver:  Solving for Ux, Initial residual = 0.000429816, Final residual = 4.21975e-05, No Iterations 7
smoothSolver:  Solving for Uy, Initial residual = 0.00943161, Final residual = 0.000764163, No Iterations 7
smoothSolver:  Solving for Uz, Initial residual = 0.00836785, Final residual = 0.000699061, No Iterations 7
GAMG:  Solving for p, Initial residual = 0.00397856, Final residual = 1.92266e-05, No Iterations 4
time step continuity errors : sum local = 3.69941e-05, global = 1.97436e-06, cumulative = 0.000262671
smoothSolver:  Solving for omega, Initial residual = 6.52246e-05, Final residual = 4.83467e-06, No Iterations 2
smoothSolver:  Solving for k, Initial residual = 0.00100096, Final residual = 8.49555e-05, No Iterations 2
ExecutionTime = 99.24 s  ClockTime = 107 s

forceCoeffs forceCoeffs1 write:
    Cm    = 0.155443
    Cd    = 0.412877
    Cl    = 0.0657958
    Cl(f) = 0.18834
    Cl(r) = -0.122545

Time = 73

smoothSolver:  Solving for Ux, Initial residual = 0.000413427, Final residual = 4.02795e-05, No Iterations 7
smoothSolver:  Solving for Uy, Initial residual = 0.00909655, Final residual = 0.000739686, No Iterations 7
smoothSolver:  Solving for Uz, Initial residual = 0.0080748, Final residual = 0.000659902, No Iterations 7
GAMG:  Solving for p, Initial residual = 0.00391681, Final residual = 1.91327e-05, No Iterations 4
time step continuity errors : sum local = 3.68397e-05, global = 2.4462e-06, cumulative = 0.000265117
smoothSolver:  Solving for omega, Initial residual = 6.4025e-05, Final residual = 4.72648e-06, No Iterations 2
smoothSolver:  Solving for k, Initial residual = 0.000984163, Final residual = 8.29935e-05, No Iterations 2
ExecutionTime = 100.52 s  ClockTime = 108 s

forceCoeffs forceCoeffs1 write:
    Cm    = 0.155324
    Cd    = 0.412942
    Cl    = 0.0654343
    Cl(f) = 0.188041
    Cl(r) = -0.122607

Time = 74

smoothSolver:  Solving for Ux, Initial residual = 0.000401056, Final residual = 3.8733e-05, No Iterations 7
smoothSolver:  Solving for Uy, Initial residual = 0.00887477, Final residual = 0.000726434, No Iterations 7
smoothSolver:  Solving for Uz, Initial residual = 0.00790437, Final residual = 0.000633078, No Iterations 7
GAMG:  Solving for p, Initial residual = 0.00387423, Final residual = 1.8857e-05, No Iterations 4
time step continuity errors : sum local = 3.63369e-05, global = 2.56104e-06, cumulative = 0.000267678
smoothSolver:  Solving for omega, Initial residual = 6.29723e-05, Final residual = 4.62686e-06, No Iterations 2
smoothSolver:  Solving for k, Initial residual = 0.000968721, Final residual = 8.12321e-05, No Iterations 2
ExecutionTime = 101.8 s  ClockTime = 109 s

forceCoeffs forceCoeffs1 write:
    Cm    = 0.155141
    Cd    = 0.412913
    Cl    = 0.0650645
    Cl(f) = 0.187673
    Cl(r) = -0.122609

Time = 75

smoothSolver:  Solving for Ux, Initial residual = 0.000393587, Final residual = 3.75578e-05, No Iterations 7
smoothSolver:  Solving for Uy, Initial residual = 0.00874295, Final residual = 0.000720736, No Iterations 7
smoothSolver:  Solving for Uz, Initial residual = 0.00784457, Final residual = 0.000627136, No Iterations 7
GAMG:  Solving for p, Initial residual = 0.00385035, Final residual = 1.81361e-05, No Iterations 4
time step continuity errors : sum local = 3.4977e-05, global = 2.2394e-06, cumulative = 0.000269917
smoothSolver:  Solving for omega, Initial residual = 6.17829e-05, Final residual = 4.53025e-06, No Iterations 2
smoothSolver:  Solving for k, Initial residual = 0.000954108, Final residual = 7.96493e-05, No Iterations 2
ExecutionTime = 103.07 s  ClockTime = 111 s

forceCoeffs forceCoeffs1 write:
    Cm    = 0.1549
    Cd    = 0.41272
    Cl    = 0.0646931
    Cl(f) = 0.187247
    Cl(r) = -0.122554

Time = 76

smoothSolver:  Solving for Ux, Initial residual = 0.000387722, Final residual = 3.66436e-05, No Iterations 7
smoothSolver:  Solving for Uy, Initial residual = 0.00870646, Final residual = 0.000725516, No Iterations 7
smoothSolver:  Solving for Uz, Initial residual = 0.00782711, Final residual = 0.000633524, No Iterations 7
GAMG:  Solving for p, Initial residual = 0.00380792, Final residual = 1.73887e-05, No Iterations 4
time step continuity errors : sum local = 3.35578e-05, global = 1.60036e-06, cumulative = 0.000271518
smoothSolver:  Solving for omega, Initial residual = 6.08312e-05, Final residual = 4.46008e-06, No Iterations 2
smoothSolver:  Solving for k, Initial residual = 0.000941127, Final residual = 7.83162e-05, No Iterations 2
ExecutionTime = 104.45 s  ClockTime = 112 s

forceCoeffs forceCoeffs1 write:
    Cm    = 0.154671
    Cd    = 0.412492
    Cl    = 0.0644186
    Cl(f) = 0.18688
    Cl(r) = -0.122462

Time = 77

smoothSolver:  Solving for Ux, Initial residual = 0.000382627, Final residual = 3.62835e-05, No Iterations 7
smoothSolver:  Solving for Uy, Initial residual = 0.00869775, Final residual = 0.000737017, No Iterations 7
smoothSolver:  Solving for Uz, Initial residual = 0.00780729, Final residual = 0.000645551, No Iterations 7
GAMG:  Solving for p, Initial residual = 0.00377146, Final residual = 1.71008e-05, No Iterations 4
time step continuity errors : sum local = 3.30271e-05, global = 6.33758e-07, cumulative = 0.000272151
smoothSolver:  Solving for omega, Initial residual = 6.01892e-05, Final residual = 4.40554e-06, No Iterations 2
smoothSolver:  Solving for k, Initial residual = 0.000929633, Final residual = 7.72681e-05, No Iterations 2
ExecutionTime = 105.74 s  ClockTime = 113 s

forceCoeffs forceCoeffs1 write:
    Cm    = 0.154423
    Cd    = 0.412166
    Cl    = 0.0641203
    Cl(f) = 0.186483
    Cl(r) = -0.122363

Time = 78

smoothSolver:  Solving for Ux, Initial residual = 0.000378698, Final residual = 3.65349e-05, No Iterations 7
smoothSolver:  Solving for Uy, Initial residual = 0.00870566, Final residual = 0.000750072, No Iterations 7
smoothSolver:  Solving for Uz, Initial residual = 0.00775552, Final residual = 0.000654222, No Iterations 7
GAMG:  Solving for p, Initial residual = 0.00372849, Final residual = 1.71005e-05, No Iterations 4
time step continuity errors : sum local = 3.30432e-05, global = -4.80182e-07, cumulative = 0.000271671
smoothSolver:  Solving for omega, Initial residual = 5.97454e-05, Final residual = 4.34783e-06, No Iterations 2
smoothSolver:  Solving for k, Initial residual = 0.00091894, Final residual = 7.6374e-05, No Iterations 2
ExecutionTime = 107.06 s  ClockTime = 115 s

forceCoeffs forceCoeffs1 write:
    Cm    = 0.154301
    Cd    = 0.412009
    Cl    = 0.0638872
    Cl(f) = 0.186244
    Cl(r) = -0.122357

Time = 79

smoothSolver:  Solving for Ux, Initial residual = 0.000377284, Final residual = 3.70656e-05, No Iterations 7
smoothSolver:  Solving for Uy, Initial residual = 0.00872455, Final residual = 0.000760485, No Iterations 7
smoothSolver:  Solving for Uz, Initial residual = 0.00768805, Final residual = 0.000657972, No Iterations 7
GAMG:  Solving for p, Initial residual = 0.00368703, Final residual = 1.72749e-05, No Iterations 4
time step continuity errors : sum local = 3.33874e-05, global = -1.49616e-06, cumulative = 0.000270175
smoothSolver:  Solving for omega, Initial residual = 5.9448e-05, Final residual = 4.29082e-06, No Iterations 2
smoothSolver:  Solving for k, Initial residual = 0.000908367, Final residual = 7.52725e-05, No Iterations 2
ExecutionTime = 108.36 s  ClockTime = 116 s

forceCoeffs forceCoeffs1 write:
    Cm    = 0.154281
    Cd    = 0.41197
    Cl    = 0.0636291
    Cl(f) = 0.186096
    Cl(r) = -0.122467

Time = 80

smoothSolver:  Solving for Ux, Initial residual = 0.000376917, Final residual = 3.76645e-05, No Iterations 7
smoothSolver:  Solving for Uy, Initial residual = 0.00873981, Final residual = 0.000767781, No Iterations 7
smoothSolver:  Solving for Uz, Initial residual = 0.00762764, Final residual = 0.000660585, No Iterations 7
GAMG:  Solving for p, Initial residual = 0.00366268, Final residual = 1.70939e-05, No Iterations 4
time step continuity errors : sum local = 3.30281e-05, global = -1.9643e-06, cumulative = 0.000268211
smoothSolver:  Solving for omega, Initial residual = 5.92301e-05, Final residual = 4.24531e-06, No Iterations 2
smoothSolver:  Solving for k, Initial residual = 0.000896218, Final residual = 7.39258e-05, No Iterations 2
ExecutionTime = 109.61 s  ClockTime = 117 s

forceCoeffs forceCoeffs1 write:
    Cm    = 0.154397
    Cd    = 0.412116
    Cl    = 0.0635164
    Cl(f) = 0.186155
    Cl(r) = -0.122638

Time = 81

smoothSolver:  Solving for Ux, Initial residual = 0.000379173, Final residual = 2.87458e-05, No Iterations 8
smoothSolver:  Solving for Uy, Initial residual = 0.00873852, Final residual = 0.000770345, No Iterations 7
smoothSolver:  Solving for Uz, Initial residual = 0.00758978, Final residual = 0.000662128, No Iterations 7
GAMG:  Solving for p, Initial residual = 0.0036564, Final residual = 1.64289e-05, No Iterations 4
time step continuity errors : sum local = 3.17207e-05, global = -1.86495e-06, cumulative = 0.000266346
smoothSolver:  Solving for omega, Initial residual = 5.89986e-05, Final residual = 4.20496e-06, No Iterations 2
smoothSolver:  Solving for k, Initial residual = 0.000882216, Final residual = 7.23868e-05, No Iterations 2
ExecutionTime = 110.9 s  ClockTime = 119 s

forceCoeffs forceCoeffs1 write:
    Cm    = 0.154562
    Cd    = 0.412353
    Cl    = 0.0633854
    Cl(f) = 0.186255
    Cl(r) = -0.12287

Time = 82

smoothSolver:  Solving for Ux, Initial residual = 0.000381904, Final residual = 2.91867e-05, No Iterations 8
smoothSolver:  Solving for Uy, Initial residual = 0.0086861, Final residual = 0.000771851, No Iterations 7
smoothSolver:  Solving for Uz, Initial residual = 0.00758416, Final residual = 0.000668258, No Iterations 7
GAMG:  Solving for p, Initial residual = 0.00365045, Final residual = 1.6078e-05, No Iterations 4
time step continuity errors : sum local = 3.10128e-05, global = -1.68145e-06, cumulative = 0.000264664
smoothSolver:  Solving for omega, Initial residual = 5.8604e-05, Final residual = 4.15747e-06, No Iterations 2
smoothSolver:  Solving for k, Initial residual = 0.000867759, Final residual = 7.09087e-05, No Iterations 2
ExecutionTime = 112.2 s  ClockTime = 120 s

forceCoeffs forceCoeffs1 write:
    Cm    = 0.154805
    Cd    = 0.412697
    Cl    = 0.0634032
    Cl(f) = 0.186506
    Cl(r) = -0.123103

Time = 83

smoothSolver:  Solving for Ux, Initial residual = 0.000383092, Final residual = 2.9692e-05, No Iterations 8
smoothSolver:  Solving for Uy, Initial residual = 0.00861552, Final residual = 0.000770967, No Iterations 7
smoothSolver:  Solving for Uz, Initial residual = 0.0075663, Final residual = 0.000675547, No Iterations 7
GAMG:  Solving for p, Initial residual = 0.00363061, Final residual = 1.62874e-05, No Iterations 4
time step continuity errors : sum local = 3.13874e-05, global = -1.3658e-06, cumulative = 0.000263299
[...]
smoothSolver:  Solving for Uy, Initial residual = 0.00380546, Final residual = 0.000284871, No Iterations 7
smoothSolver:  Solving for Uz, Initial residual = 0.00297907, Final residual = 0.00029543, No Iterations 6
GAMG:  Solving for p, Initial residual = 0.00180356, Final residual = 7.70888e-06, No Iterations 4
time step continuity errors : sum local = 1.4598e-05, global = -7.38719e-07, cumulative = 0.000251655
smoothSolver:  Solving for omega, Initial residual = 1.89479e-05, Final residual = 1.10231e-06, No Iterations 2
smoothSolver:  Solving for k, Initial residual = 0.000147945, Final residual = 9.99414e-06, No Iterations 2
ExecutionTime = 603.86 s  ClockTime = 621 s

forceCoeffs forceCoeffs1 write:
    Cm    = 0.154089
    Cd    = 0.417354
    Cl    = 0.0642056
    Cl(f) = 0.186191
    Cl(r) = -0.121986

Time = 481

smoothSolver:  Solving for Ux, Initial residual = 0.000157146, Final residual = 1.4643e-05, No Iterations 7
smoothSolver:  Solving for Uy, Initial residual = 0.00377545, Final residual = 0.000280939, No Iterations 7
smoothSolver:  Solving for Uz, Initial residual = 0.00296671, Final residual = 0.00029194, No Iterations 6
GAMG:  Solving for p, Initial residual = 0.00179584, Final residual = 7.49497e-06, No Iterations 4
time step continuity errors : sum local = 1.41858e-05, global = -6.59612e-07, cumulative = 0.000250995
smoothSolver:  Solving for omega, Initial residual = 1.89288e-05, Final residual = 1.1024e-06, No Iterations 2
smoothSolver:  Solving for k, Initial residual = 0.000147324, Final residual = 9.91713e-06, No Iterations 2
ExecutionTime = 605.07 s  ClockTime = 622 s

forceCoeffs forceCoeffs1 write:
    Cm    = 0.154081
    Cd    = 0.417243
    Cl    = 0.0643506
    Cl(f) = 0.186257
    Cl(r) = -0.121906

Time = 482

smoothSolver:  Solving for Ux, Initial residual = 0.000156326, Final residual = 1.44638e-05, No Iterations 7
smoothSolver:  Solving for Uy, Initial residual = 0.00374896, Final residual = 0.000276919, No Iterations 7
smoothSolver:  Solving for Uz, Initial residual = 0.00294536, Final residual = 0.000288446, No Iterations 6
GAMG:  Solving for p, Initial residual = 0.00179332, Final residual = 7.26684e-06, No Iterations 4
time step continuity errors : sum local = 1.37481e-05, global = -5.0314e-07, cumulative = 0.000250492
smoothSolver:  Solving for omega, Initial residual = 1.89992e-05, Final residual = 1.10125e-06, No Iterations 2
smoothSolver:  Solving for k, Initial residual = 0.000146625, Final residual = 9.80407e-06, No Iterations 2
ExecutionTime = 606.27 s  ClockTime = 624 s

forceCoeffs forceCoeffs1 write:
    Cm    = 0.154098
    Cd    = 0.417125
    Cl    = 0.0644917
    Cl(f) = 0.186344
    Cl(r) = -0.121852

Time = 483

smoothSolver:  Solving for Ux, Initial residual = 0.000155097, Final residual = 1.42783e-05, No Iterations 7
smoothSolver:  Solving for Uy, Initial residual = 0.00371308, Final residual = 0.000370501, No Iterations 6
smoothSolver:  Solving for Uz, Initial residual = 0.00293233, Final residual = 0.000286535, No Iterations 6
GAMG:  Solving for p, Initial residual = 0.00179446, Final residual = 7.15696e-06, No Iterations 4
time step continuity errors : sum local = 1.35355e-05, global = -2.79998e-07, cumulative = 0.000250212
smoothSolver:  Solving for omega, Initial residual = 1.89665e-05, Final residual = 1.0971e-06, No Iterations 2
smoothSolver:  Solving for k, Initial residual = 0.000145842, Final residual = 9.73149e-06, No Iterations 2
ExecutionTime = 607.46 s  ClockTime = 625 s

forceCoeffs forceCoeffs1 write:
    Cm    = 0.1541
    Cd    = 0.417012
    Cl    = 0.0645827
    Cl(f) = 0.186391
    Cl(r) = -0.121808

Time = 484

smoothSolver:  Solving for Ux, Initial residual = 0.000153841, Final residual = 1.41456e-05, No Iterations 7
smoothSolver:  Solving for Uy, Initial residual = 0.0036865, Final residual = 0.000366408, No Iterations 6
smoothSolver:  Solving for Uz, Initial residual = 0.00292462, Final residual = 0.000286762, No Iterations 6
GAMG:  Solving for p, Initial residual = 0.00180149, Final residual = 7.09822e-06, No Iterations 4
time step continuity errors : sum local = 1.34209e-05, global = -1.32954e-08, cumulative = 0.000250199
smoothSolver:  Solving for omega, Initial residual = 1.88816e-05, Final residual = 1.09397e-06, No Iterations 2
smoothSolver:  Solving for k, Initial residual = 0.00014466, Final residual = 9.67408e-06, No Iterations 2
ExecutionTime = 608.63 s  ClockTime = 626 s

forceCoeffs forceCoeffs1 write:
    Cm    = 0.154116
    Cd    = 0.416854
    Cl    = 0.0647078
    Cl(f) = 0.18647
    Cl(r) = -0.121762

Time = 485

smoothSolver:  Solving for Ux, Initial residual = 0.000152483, Final residual = 1.40519e-05, No Iterations 7
smoothSolver:  Solving for Uy, Initial residual = 0.00368389, Final residual = 0.000365214, No Iterations 6
smoothSolver:  Solving for Uz, Initial residual = 0.00292994, Final residual = 0.000289785, No Iterations 6
GAMG:  Solving for p, Initial residual = 0.00180725, Final residual = 7.10715e-06, No Iterations 4
time step continuity errors : sum local = 1.34352e-05, global = 2.31469e-07, cumulative = 0.00025043
smoothSolver:  Solving for omega, Initial residual = 1.88113e-05, Final residual = 1.09044e-06, No Iterations 2
smoothSolver:  Solving for k, Initial residual = 0.000143258, Final residual = 9.60914e-06, No Iterations 2
ExecutionTime = 609.8 s  ClockTime = 627 s

forceCoeffs forceCoeffs1 write:
    Cm    = 0.154101
    Cd    = 0.416698
    Cl    = 0.064754
    Cl(f) = 0.186478
    Cl(r) = -0.121724

Time = 486

smoothSolver:  Solving for Ux, Initial residual = 0.000151702, Final residual = 1.40484e-05, No Iterations 7
smoothSolver:  Solving for Uy, Initial residual = 0.0036906, Final residual = 0.000366153, No Iterations 6
smoothSolver:  Solving for Uz, Initial residual = 0.00295365, Final residual = 0.000294169, No Iterations 6
GAMG:  Solving for p, Initial residual = 0.00180919, Final residual = 7.06623e-06, No Iterations 4
time step continuity errors : sum local = 1.33567e-05, global = 4.5738e-07, cumulative = 0.000250888
smoothSolver:  Solving for omega, Initial residual = 1.86906e-05, Final residual = 1.08298e-06, No Iterations 2
smoothSolver:  Solving for k, Initial residual = 0.000141478, Final residual = 9.49536e-06, No Iterations 2
ExecutionTime = 610.96 s  ClockTime = 628 s

forceCoeffs forceCoeffs1 write:
    Cm    = 0.154089
    Cd    = 0.416551
    Cl    = 0.0647793
    Cl(f) = 0.186478
    Cl(r) = -0.121699

Time = 487

smoothSolver:  Solving for Ux, Initial residual = 0.000151143, Final residual = 1.40507e-05, No Iterations 7
smoothSolver:  Solving for Uy, Initial residual = 0.00369914, Final residual = 0.000366217, No Iterations 6
smoothSolver:  Solving for Uz, Initial residual = 0.00296554, Final residual = 0.000295155, No Iterations 6
GAMG:  Solving for p, Initial residual = 0.00181196, Final residual = 7.12276e-06, No Iterations 4
time step continuity errors : sum local = 1.34636e-05, global = 5.98361e-07, cumulative = 0.000251486
smoothSolver:  Solving for omega, Initial residual = 1.86154e-05, Final residual = 1.08036e-06, No Iterations 2
smoothSolver:  Solving for k, Initial residual = 0.000139527, Final residual = 9.3725e-06, No Iterations 2
ExecutionTime = 612.15 s  ClockTime = 630 s

forceCoeffs forceCoeffs1 write:
    Cm    = 0.15403
    Cd    = 0.416384
    Cl    = 0.0647457
    Cl(f) = 0.186403
    Cl(r) = -0.121657

Time = 488

smoothSolver:  Solving for Ux, Initial residual = 0.000151054, Final residual = 1.40915e-05, No Iterations 7
smoothSolver:  Solving for Uy, Initial residual = 0.00370671, Final residual = 0.000369237, No Iterations 6
smoothSolver:  Solving for Uz, Initial residual = 0.00297697, Final residual = 0.000296284, No Iterations 6
GAMG:  Solving for p, Initial residual = 0.00180952, Final residual = 7.22132e-06, No Iterations 4
time step continuity errors : sum local = 1.36498e-05, global = 6.73133e-07, cumulative = 0.000252159
smoothSolver:  Solving for omega, Initial residual = 1.86779e-05, Final residual = 1.08509e-06, No Iterations 2
smoothSolver:  Solving for k, Initial residual = 0.000137635, Final residual = 9.2373e-06, No Iterations 2
ExecutionTime = 613.35 s  ClockTime = 631 s

forceCoeffs forceCoeffs1 write:
    Cm    = 0.153973
    Cd    = 0.416204
    Cl    = 0.0647466
    Cl(f) = 0.186347
    Cl(r) = -0.1216

Time = 489

smoothSolver:  Solving for Ux, Initial residual = 0.000151101, Final residual = 1.41319e-05, No Iterations 7
smoothSolver:  Solving for Uy, Initial residual = 0.0037207, Final residual = 0.000274408, No Iterations 7
smoothSolver:  Solving for Uz, Initial residual = 0.00297315, Final residual = 0.000220507, No Iterations 7
GAMG:  Solving for p, Initial residual = 0.0018048, Final residual = 7.71092e-06, No Iterations 4
time step continuity errors : sum local = 1.45737e-05, global = 5.27421e-07, cumulative = 0.000252687
smoothSolver:  Solving for omega, Initial residual = 1.86445e-05, Final residual = 1.08498e-06, No Iterations 2
smoothSolver:  Solving for k, Initial residual = 0.000136516, Final residual = 9.1281e-06, No Iterations 2
ExecutionTime = 614.6 s  ClockTime = 632 s

forceCoeffs forceCoeffs1 write:
    Cm    = 0.153878
    Cd    = 0.416013
    Cl    = 0.0647059
    Cl(f) = 0.18623
    Cl(r) = -0.121525

Time = 490

smoothSolver:  Solving for Ux, Initial residual = 0.000152144, Final residual = 1.42398e-05, No Iterations 7
smoothSolver:  Solving for Uy, Initial residual = 0.00373659, Final residual = 0.000279487, No Iterations 7
smoothSolver:  Solving for Uz, Initial residual = 0.00297788, Final residual = 0.000221495, No Iterations 7
GAMG:  Solving for p, Initial residual = 0.00179492, Final residual = 7.9344e-06, No Iterations 4
time step continuity errors : sum local = 1.49934e-05, global = 1.95141e-07, cumulative = 0.000252882
smoothSolver:  Solving for omega, Initial residual = 1.87764e-05, Final residual = 1.08529e-06, No Iterations 2
smoothSolver:  Solving for k, Initial residual = 0.00013567, Final residual = 9.01453e-06, No Iterations 2
ExecutionTime = 615.81 s  ClockTime = 633 s

forceCoeffs forceCoeffs1 write:
    Cm    = 0.153756
    Cd    = 0.415779
    Cl    = 0.0646942
    Cl(f) = 0.186103
    Cl(r) = -0.121409

Time = 491

smoothSolver:  Solving for Ux, Initial residual = 0.000153346, Final residual = 1.4301e-05, No Iterations 7
smoothSolver:  Solving for Uy, Initial residual = 0.00376693, Final residual = 0.000283767, No Iterations 7
smoothSolver:  Solving for Uz, Initial residual = 0.00299408, Final residual = 0.000225007, No Iterations 7
GAMG:  Solving for p, Initial residual = 0.00179835, Final residual = 8.22584e-06, No Iterations 4
time step continuity errors : sum local = 1.55396e-05, global = -2.29295e-07, cumulative = 0.000252652
smoothSolver:  Solving for omega, Initial residual = 1.88925e-05, Final residual = 1.08845e-06, No Iterations 2
smoothSolver:  Solving for k, Initial residual = 0.00013436, Final residual = 8.91782e-06, No Iterations 2
ExecutionTime = 617.01 s  ClockTime = 634 s

forceCoeffs forceCoeffs1 write:
    Cm    = 0.153637
    Cd    = 0.415532
    Cl    = 0.0647021
    Cl(f) = 0.185988
    Cl(r) = -0.121286

Time = 492

smoothSolver:  Solving for Ux, Initial residual = 0.000155321, Final residual = 1.44743e-05, No Iterations 7
smoothSolver:  Solving for Uy, Initial residual = 0.00382707, Final residual = 0.000290785, No Iterations 7
smoothSolver:  Solving for Uz, Initial residual = 0.00304084, Final residual = 0.000230551, No Iterations 7
GAMG:  Solving for p, Initial residual = 0.00180413, Final residual = 8.45255e-06, No Iterations 4
time step continuity errors : sum local = 1.59608e-05, global = -5.8441e-07, cumulative = 0.000252068
smoothSolver:  Solving for omega, Initial residual = 1.90836e-05, Final residual = 1.10062e-06, No Iterations 2
smoothSolver:  Solving for k, Initial residual = 0.000133265, Final residual = 8.87337e-06, No Iterations 2
ExecutionTime = 618.24 s  ClockTime = 636 s

forceCoeffs forceCoeffs1 write:
    Cm    = 0.153536
    Cd    = 0.41531
    Cl    = 0.0646947
    Cl(f) = 0.185883
    Cl(r) = -0.121189

Time = 493

smoothSolver:  Solving for Ux, Initial residual = 0.000157892, Final residual = 1.47606e-05, No Iterations 7
smoothSolver:  Solving for Uy, Initial residual = 0.003897, Final residual = 0.000298767, No Iterations 7
smoothSolver:  Solving for Uz, Initial residual = 0.00309687, Final residual = 0.000238757, No Iterations 7
GAMG:  Solving for p, Initial residual = 0.00182305, Final residual = 8.71248e-06, No Iterations 4
time step continuity errors : sum local = 1.64419e-05, global = -8.38134e-07, cumulative = 0.00025123
smoothSolver:  Solving for omega, Initial residual = 1.95185e-05, Final residual = 1.12871e-06, No Iterations 2
smoothSolver:  Solving for k, Initial residual = 0.000132752, Final residual = 8.9055e-06, No Iterations 2
ExecutionTime = 619.44 s  ClockTime = 637 s

forceCoeffs forceCoeffs1 write:
    Cm    = 0.153472
    Cd    = 0.415118
    Cl    = 0.0646639
    Cl(f) = 0.185804
    Cl(r) = -0.121141

Time = 494

smoothSolver:  Solving for Ux, Initial residual = 0.000161458, Final residual = 1.5178e-05, No Iterations 7
smoothSolver:  Solving for Uy, Initial residual = 0.00398621, Final residual = 0.000308834, No Iterations 7
smoothSolver:  Solving for Uz, Initial residual = 0.00316802, Final residual = 0.00024649, No Iterations 7
GAMG:  Solving for p, Initial residual = 0.00184739, Final residual = 8.92351e-06, No Iterations 4
time step continuity errors : sum local = 1.6828e-05, global = -1.01178e-06, cumulative = 0.000250218
smoothSolver:  Solving for omega, Initial residual = 2.00161e-05, Final residual = 1.16e-06, No Iterations 2
smoothSolver:  Solving for k, Initial residual = 0.000132736, Final residual = 8.99624e-06, No Iterations 2
ExecutionTime = 620.65 s  ClockTime = 638 s

forceCoeffs forceCoeffs1 write:
    Cm    = 0.153466
    Cd    = 0.414955
    Cl    = 0.0646749
    Cl(f) = 0.185803
    Cl(r) = -0.121128

Time = 495

smoothSolver:  Solving for Ux, Initial residual = 0.000164709, Final residual = 1.55148e-05, No Iterations 7
smoothSolver:  Solving for Uy, Initial residual = 0.00408026, Final residual = 0.000318501, No Iterations 7
smoothSolver:  Solving for Uz, Initial residual = 0.00324349, Final residual = 0.000253378, No Iterations 7
GAMG:  Solving for p, Initial residual = 0.00187033, Final residual = 9.04103e-06, No Iterations 4
time step continuity errors : sum local = 1.70364e-05, global = -1.115e-06, cumulative = 0.000249103
smoothSolver:  Solving for omega, Initial residual = 2.05825e-05, Final residual = 1.19283e-06, No Iterations 2
smoothSolver:  Solving for k, Initial residual = 0.000133467, Final residual = 9.09963e-06, No Iterations 2
ExecutionTime = 621.86 s  ClockTime = 639 s

forceCoeffs forceCoeffs1 write:
    Cm    = 0.153485
    Cd    = 0.414832
    Cl    = 0.0646331
    Cl(f) = 0.185802
    Cl(r) = -0.121169

Time = 496

smoothSolver:  Solving for Ux, Initial residual = 0.000167216, Final residual = 1.56918e-05, No Iterations 7
smoothSolver:  Solving for Uy, Initial residual = 0.00414342, Final residual = 0.000321797, No Iterations 7
smoothSolver:  Solving for Uz, Initial residual = 0.00329247, Final residual = 0.000255619, No Iterations 7
GAMG:  Solving for p, Initial residual = 0.00188492, Final residual = 8.91761e-06, No Iterations 4
time step continuity errors : sum local = 1.67898e-05, global = -1.09678e-06, cumulative = 0.000248006
smoothSolver:  Solving for omega, Initial residual = 2.10473e-05, Final residual = 1.22753e-06, No Iterations 2
smoothSolver:  Solving for k, Initial residual = 0.000134589, Final residual = 9.16686e-06, No Iterations 2
ExecutionTime = 623.07 s  ClockTime = 640 s

forceCoeffs forceCoeffs1 write:
    Cm    = 0.15352
    Cd    = 0.414683
    Cl    = 0.0646206
    Cl(f) = 0.18583
    Cl(r) = -0.12121

Time = 497

smoothSolver:  Solving for Ux, Initial residual = 0.0001675, Final residual = 1.57149e-05, No Iterations 7
smoothSolver:  Solving for Uy, Initial residual = 0.00416296, Final residual = 0.000319614, No Iterations 7
smoothSolver:  Solving for Uz, Initial residual = 0.00331339, Final residual = 0.000254364, No Iterations 7
GAMG:  Solving for p, Initial residual = 0.00189809, Final residual = 8.6088e-06, No Iterations 4
time step continuity errors : sum local = 1.61977e-05, global = -1.00468e-06, cumulative = 0.000247002
smoothSolver:  Solving for omega, Initial residual = 2.11382e-05, Final residual = 1.24043e-06, No Iterations 2
smoothSolver:  Solving for k, Initial residual = 0.000136158, Final residual = 9.20162e-06, No Iterations 2
ExecutionTime = 624.29 s  ClockTime = 642 s

forceCoeffs forceCoeffs1 write:
    Cm    = 0.153515
    Cd    = 0.414479
    Cl    = 0.0645346
    Cl(f) = 0.185782
    Cl(r) = -0.121247

Time = 498

smoothSolver:  Solving for Ux, Initial residual = 0.000168364, Final residual = 1.58801e-05, No Iterations 7
smoothSolver:  Solving for Uy, Initial residual = 0.00415043, Final residual = 0.00031453, No Iterations 7
smoothSolver:  Solving for Uz, Initial residual = 0.00331659, Final residual = 0.000251044, No Iterations 7
GAMG:  Solving for p, Initial residual = 0.00190209, Final residual = 8.36747e-06, No Iterations 4
time step continuity errors : sum local = 1.57358e-05, global = -8.03797e-07, cumulative = 0.000246198
smoothSolver:  Solving for omega, Initial residual = 2.12281e-05, Final residual = 1.2375e-06, No Iterations 2
smoothSolver:  Solving for k, Initial residual = 0.000138053, Final residual = 9.24492e-06, No Iterations 2
ExecutionTime = 625.52 s  ClockTime = 643 s

forceCoeffs forceCoeffs1 write:
    Cm    = 0.153496
    Cd    = 0.414237
    Cl    = 0.0644857
    Cl(f) = 0.185739
    Cl(r) = -0.121253

Time = 499

smoothSolver:  Solving for Ux, Initial residual = 0.000169505, Final residual = 1.59251e-05, No Iterations 7
smoothSolver:  Solving for Uy, Initial residual = 0.00413397, Final residual = 0.000308536, No Iterations 7
smoothSolver:  Solving for Uz, Initial residual = 0.00331168, Final residual = 0.000247591, No Iterations 7
GAMG:  Solving for p, Initial residual = 0.00190654, Final residual = 8.18633e-06, No Iterations 4
time step continuity errors : sum local = 1.539e-05, global = -5.7487e-07, cumulative = 0.000245623
smoothSolver:  Solving for omega, Initial residual = 2.11555e-05, Final residual = 1.22922e-06, No Iterations 2
smoothSolver:  Solving for k, Initial residual = 0.000140541, Final residual = 9.32625e-06, No Iterations 2
ExecutionTime = 626.75 s  ClockTime = 644 s

forceCoeffs forceCoeffs1 write:
    Cm    = 0.153473
    Cd    = 0.414042
    Cl    = 0.0643616
    Cl(f) = 0.185654
    Cl(r) = -0.121292

Time = 500

smoothSolver:  Solving for Ux, Initial residual = 0.000170188, Final residual = 1.59089e-05, No Iterations 7
smoothSolver:  Solving for Uy, Initial residual = 0.00409383, Final residual = 0.000302356, No Iterations 7
smoothSolver:  Solving for Uz, Initial residual = 0.00330228, Final residual = 0.000244163, No Iterations 7
GAMG:  Solving for p, Initial residual = 0.00190918, Final residual = 7.87519e-06, No Iterations 4
time step continuity errors : sum local = 1.48023e-05, global = -4.18598e-07, cumulative = 0.000245204
smoothSolver:  Solving for omega, Initial residual = 2.10121e-05, Final residual = 1.21575e-06, No Iterations 2
smoothSolver:  Solving for k, Initial residual = 0.000142876, Final residual = 9.41644e-06, No Iterations 2
ExecutionTime = 627.97 s  ClockTime = 645 s

streamlines streamlines write:
    seeded 20 particles
    Tracks:20
    Total samples:20360
    Writing data to "/home/laptop/OpenFOAM/laptop-9/run/curso-cfd/motorBike/postProcessing/sets/streamlines/500"
    Writing data to "/home/laptop/OpenFOAM/laptop-9/run/curso-cfd/motorBike/postProcessing/sets/streamlines/500"
forceCoeffs forceCoeffs1 write:
    Cm    = 0.153467
    Cd    = 0.413865
    Cl    = 0.0643187
    Cl(f) = 0.185627
    Cl(r) = -0.121308

End

Finalising parallel run
