/*---------------------------------------------------------------------------*\
  =========                 |
  \\      /  F ield         | OpenFOAM: The Open Source CFD Toolbox
   \\    /   O peration     | Website:  https://openfoam.org
    \\  /    A nd           | Version:  9
     \\/     M anipulation  |
\*---------------------------------------------------------------------------*/
Build  : 9-b456138dc4bc
Exec   : snappyHexMesh -parallel -overwrite
Date   : Nov 24 2021
Time   : 15:55:39
Host   : "laptop-Lenovo-G400"
PID    : 6429
I/O    : uncollated
Case   : /home/laptop/OpenFOAM/laptop-9/run/curso-cfd/motorBike
nProcs : 4
Slaves : 
3
(
"laptop-Lenovo-G400.6430"
"laptop-Lenovo-G400.6431"
"laptop-Lenovo-G400.6432"
)

Pstream initialised with:
    floatTransfer      : 0
    nProcsSimpleSum    : 0
    commsType          : nonBlocking
    polling iterations : 0
sigFpe : Enabling floating point exception trapping (FOAM_SIGFPE).
fileModificationChecking : Monitoring run-time modified files using timeStampMaster (fileModificationSkew 10)
allowSystemOperations : Allowing user-supplied system call operations

// * * * * * * * * * * * * * * * * * * * * * * * * * * * * * * * * * * * * * //
Create time

Create mesh for time = 0

Read mesh in = 0.02 s
Reading "snappyHexMeshDict"


Overall mesh bounding box  : (-5 -4 0) (15 4 8)
Relative tolerance         : 1e-06
Absolute matching distance : 2.29783e-05

Reading refinement surfaces...
Read refinement surfaces in = 3.05 s

Reading refinement regions...
Refinement level 4 for all cells inside refinementBox
Read refinement regions in = 0 s

Setting refinement level of surface to be consistent with shells..
Checked shell refinement in = 2.03 s

Reading features...
Read edgeMesh motorBike.eMesh
    points      : 20665
    edges       : 20867
    boundingBox : (-0.241214 -0.337971 -4.232e-05) (1.75115 0.329368 1.21979)

Refinement level according to distance to "motorBike.eMesh" (20665 points, 20867 edges).
    level 6 for all cells within 0 metre.
Read features in = 0.07 s


Determining initial surface intersections
-----------------------------------------

Edge intersection testing:
    Number of edges             : 4224
    Number of edges to retest   : 4224
    Number of intersected edges : 2
Calculated surface intersections in = 0.06 s

Initial mesh : cells:1280  faces:4224  points:1701
Cells per refinement level:
    0	1280

Adding patches for surface regions
----------------------------------

Patch Type                Region                        
----- ----                ------                        
motorBike:

5     wall                motorBike_frt-fairing:001%1   
6     wall                motorBike_windshield:002%2    
7     wall                motorBike_rr-wh-rim:005%5     
8     wall                motorBike_rr-wh-rim:010%10    
9     wall                motorBike_fr-wh-rim:011%11    
10    wall                motorBike_fr-wh-brake-disk:012%12
11    wall                motorBike_frame:016-shadow%13 
12    wall                motorBike_rear-susp:014%14    
13    wall                motorBike_rear-susp:014-shadow%15
14    wall                motorBike_frame:016%16        
15    wall                motorBike_rr-wh-rim:005-shadow%17
16    wall                motorBike_rr-wh-chain-hub:022%22
17    wall                motorBike_rearseat%24         
18    wall                motorBike_frt-fairing%25      
19    wall                motorBike_windshield%26       
20    wall                motorBike_headlights%27       
21    wall                motorBike_driversseat%28      
22    wall                motorBike_rear-body%29        
23    wall                motorBike_fuel-tank%30        
24    wall                motorBike_exhaust%31          
25    wall                motorBike_rr-wh-rim%32        
26    wall                motorBike_fr-mud-guard%33     
27    wall                motorBike_fr-wh-rim%34        
28    wall                motorBike_fr-wh-brake-disk%35 
29    wall                motorBike_fr-brake-caliper%36 
30    wall                motorBike_fr-wh-tyre%37       
31    wall                motorBike_hbars%38            
32    wall                motorBike_fr-forks%39         
33    wall                motorBike_chain%40            
34    wall                motorBike_rr-wh-tyre%41       
35    wall                motorBike_square-dial%42      
36    wall                motorBike_round-dial%43       
37    wall                motorBike_dial-holder%44      
38    wall                motorBike_rear-susp%45        
39    wall                motorBike_rear-brake-lights%46
40    wall                motorBike_rear-light-bracket%47
41    wall                motorBike_frame%48            
42    wall                motorBike_rear-mud-guard%49   
43    wall                motorBike_rear-susp-spring-damp%50
44    wall                motorBike_fairing-inner-plate%51
45    wall                motorBike_clutch-housing%52   
46    wall                motorBike_radiator%53         
47    wall                motorBike_water-pipe%54       
48    wall                motorBike_water-pump%55       
49    wall                motorBike_engine%56           
50    wall                motorBike_rear-shock-link%57  
51    wall                motorBike_rear-brake-fluid-pot-bracket%58
52    wall                motorBike_rear-brake-fluid-pot%59
53    wall                motorBike_footpeg%60          
54    wall                motorBike_rr-wh-chain-hub%61  
55    wall                motorBike_rear-brake-caliper%62
56    wall                motorBike_rider-helmet%65     
57    wall                motorBike_rider-visor%66      
58    wall                motorBike_rider-boots%67      
59    wall                motorBike_rider-gloves%68     
60    wall                motorBike_rider-body%69       
61    wall                motorBike_frame:0%70          
62    wall                motorBike_frt-fairing:001-shadow%74
63    wall                motorBike_windshield-shadow%75
64    wall                motorBike_fr-mud-guard-shadow%81
65    wall                motorBike_fr-wh-brake-disk-shadow%83
66    wall                motorBike_rear-mud-guard-shadow%84
67    wall                motorBike_rear-susp-spring-damp-shadow%85
68    wall                motorBike_radiator-shadow%86  
69    wall                motorBike_rear-shock-link-shadow%87
70    wall                motorBike_rear-brake-fluid-pot-bracket-shadow%88
[3] Selecting decompositionMethod hierarchical
[2] Selecting decompositionMethod hierarchical
[1] Selecting decompositionMethod hierarchical
71    wall                motorBike_rr-wh-chain-hub-shadow%89

Added patches in = 0.21 s

[0] Selecting decompositionMethod hierarchical
Layer thickness specified as final layer and expansion ratio.

Refinement phase
----------------

Found point (3.0001 3.0001 0.43) in cell 38 on processor 2

Feature refinement iteration 0
------------------------------

Marked for refinement due to explicit features             : 10 cells.
Determined cells to refine in = 0.1 s
Selected for feature refinement : 10 cells (out of 1280)
Edge intersection testing:
    Number of edges             : 4479
    Number of edges to retest   : 388
    Number of intersected edges : 26
Refined mesh in = 0.04 s
After refinement feature refinement iteration 0 : cells:1350  faces:4479  points:1823
Cells per refinement level:
    0	1270
    1	80
Skipping balancing since max unbalance 0.0534125 is less than allowable 0.1

Feature refinement iteration 1
------------------------------

Marked for refinement due to explicit features             : 26 cells.
Determined cells to refine in = 0.08 s
Selected for feature refinement : 32 cells (out of 1350)
Edge intersection testing:
    Number of edges             : 5259
    Number of edges to retest   : 1149
    Number of intersected edges : 127
Refined mesh in = 0.04 s
After refinement feature refinement iteration 1 : cells:1574  faces:5259  points:2167
Cells per refinement level:
    0	1264
    1	102
    2	208
Balanced mesh in = 0.06 s
After balancing feature refinement iteration 1 : cells:1574  faces:5259  points:2167
Cells per refinement level:
    0	1264
    1	102
    2	208

Feature refinement iteration 2
------------------------------

Marked for refinement due to explicit features             : 100 cells.
Determined cells to refine in = 0.13 s
Selected for feature refinement : 120 cells (out of 1574)
Edge intersection testing:
    Number of edges             : 8103
    Number of edges to retest   : 3798
    Number of intersected edges : 726
Refined mesh in = 0.02 s
After refinement feature refinement iteration 2 : cells:2414  faces:8103  points:3354
Cells per refinement level:
    0	1260
    1	118
    2	236
    3	800
Balanced mesh in = 0.05 s
After balancing feature refinement iteration 2 : cells:2414  faces:8103  points:3354
Cells per refinement level:
    0	1260
    1	118
    2	236
    3	800

Feature refinement iteration 3
------------------------------

Marked for refinement due to explicit features             : 447 cells.
Determined cells to refine in = 0.1 s
Selected for feature refinement : 539 cells (out of 2414)
Edge intersection testing:
    Number of edges             : 20616
    Number of edges to retest   : 16350
    Number of intersected edges : 3115
Refined mesh in = 0.08 s
After refinement feature refinement iteration 3 : cells:6187  faces:20616  points:8337
Cells per refinement level:
    0	1252
    1	159
    2	359
    3	841
    4	3576
Balanced mesh in = 0.16 s
After balancing feature refinement iteration 3 : cells:6187  faces:20616  points:8337
Cells per refinement level:
    0	1252
    1	159
    2	359
    3	841
    4	3576

Feature refinement iteration 4
------------------------------

Marked for refinement due to explicit features             : 1726 cells.
Determined cells to refine in = 0.23 s
Selected for feature refinement : 2001 cells (out of 6187)
Edge intersection testing:
    Number of edges             : 68094
    Number of edges to retest   : 62382
    Number of intersected edges : 11403
Refined mesh in = 0.19 s
After refinement feature refinement iteration 4 : cells:20194  faces:68094  points:27936
Cells per refinement level:
    0	1250
    1	168
    2	380
    3	890
    4	3698
    5	13808
Balanced mesh in = 0.41 s
After balancing feature refinement iteration 4 : cells:20194  faces:68094  points:27936
Cells per refinement level:
    0	1250
    1	168
    2	380
    3	890
    4	3698
    5	13808

Feature refinement iteration 5
------------------------------

Marked for refinement due to explicit features             : 5267 cells.
Determined cells to refine in = 0.43 s
Selected for feature refinement : 6710 cells (out of 20194)
Edge intersection testing:
    Number of edges             : 230619
    Number of edges to retest   : 222164
    Number of intersected edges : 36494
Refined mesh in = 0.53 s
After refinement feature refinement iteration 5 : cells:67164  faces:230619  points:97962
Cells per refinement level:
    0	1249
    1	175
    2	371
    3	888
    4	3516
    5	18829
    6	42136
Skipping balancing since max unbalance 0.0280507 is less than allowable 0.1

Feature refinement iteration 6
------------------------------

Marked for refinement due to explicit features             : 0 cells.
Determined cells to refine in = 0.78 s
Selected for feature refinement : 0 cells (out of 67164)
Stopping refining since too few cells selected.


Surface refinement iteration 0
------------------------------

Marked for refinement due to surface intersection          : 708 cells.
Marked for refinement due to curvature/regions             : 5572 cells.
Determined cells to refine in = 0.16 s
Selected for refinement : 6695 cells (out of 67164)
Edge intersection testing:
    Number of edges             : 378015
    Number of edges to retest   : 295136
    Number of intersected edges : 50038
Refined mesh in = 1.11 s
After refinement surface refinement iteration 0 : cells:114029  faces:378015  points:150294
Cells per refinement level:
    0	1246
    1	196
    2	366
    3	1015
    4	3373
    5	21121
    6	86712
Skipping balancing since max unbalance 0.0667205 is less than allowable 0.1

Surface refinement iteration 1
------------------------------

Marked for refinement due to surface intersection          : 99 cells.
Marked for refinement due to curvature/regions             : 1340 cells.
Determined cells to refine in = 0.37 s
Selected for refinement : 1544 cells (out of 114029)
Edge intersection testing:
    Number of edges             : 412890
    Number of edges to retest   : 81147
    Number of intersected edges : 53698
Refined mesh in = 0.91 s
After refinement surface refinement iteration 1 : cells:124837  faces:412890  points:163365
Cells per refinement level:
    0	1246
    1	196
    2	362
    3	1024
    4	3380
    5	21197
    6	97432
Skipping balancing since max unbalance 0.0710372 is less than allowable 0.1

Surface refinement iteration 2
------------------------------

Marked for refinement due to surface intersection          : 0 cells.
Marked for refinement due to curvature/regions             : 105 cells.
Determined cells to refine in = 0.22 s
Selected for refinement : 123 cells (out of 124837)
Edge intersection testing:
    Number of edges             : 415623
    Number of edges to retest   : 8752
    Number of intersected edges : 53893
Refined mesh in = 0.64 s
After refinement surface refinement iteration 2 : cells:125698  faces:415623  points:164343
Cells per refinement level:
    0	1246
    1	196
    2	362
    3	1022
    4	3380
    5	21220
    6	98272
Skipping balancing since max unbalance 0.0716013 is less than allowable 0.1

Surface refinement iteration 3
------------------------------

Marked for refinement due to surface intersection          : 0 cells.
Marked for refinement due to curvature/regions             : 4 cells.
Determined cells to refine in = 0.29 s
Selected for refinement : 4 cells (out of 125698)
Edge intersection testing:
    Number of edges             : 415704
    Number of edges to retest   : 345
    Number of intersected edges : 53899
Refined mesh in = 0.59 s
After refinement surface refinement iteration 3 : cells:125726  faces:415704  points:164368
Cells per refinement level:
    0	1246
    1	196
    2	362
    3	1022
    4	3380
    5	21216
    6	98304
Skipping balancing since max unbalance 0.0718081 is less than allowable 0.1

Surface refinement iteration 4
------------------------------

Marked for refinement due to surface intersection          : 0 cells.
Marked for refinement due to curvature/regions             : 0 cells.
Determined cells to refine in = 0.27 s
Selected for refinement : 0 cells (out of 125726)
Stopping refining since too few cells selected.


Removing mesh beyond surface intersections
------------------------------------------

Found point (3.0001 3.0001 0.43) in global region 0 out of 46 regions.
Keeping all cells in region 0 containing point (3.0001 3.0001 0.43)
Selected for keeping : 118675 cells.
Edge intersection testing:
    Number of edges             : 401220
    Number of edges to retest   : 18608
    Number of intersected edges : 53899

Shell refinement iteration 0
----------------------------

Marked for refinement due to distance to explicit features : 0 cells.
Marked for refinement due to refinement shells             : 1324 cells.
Determined cells to refine in = 2.55 s
Selected for internal refinement : 15335 cells (out of 118675)
Edge intersection testing:
    Number of edges             : 719667
    Number of edges to retest   : 620343
    Number of intersected edges : 56838
Refined mesh in = 1.69 s
After refinement shell refinement iteration 0 : cells:226020  faces:719667  points:265426
Cells per refinement level:
    0	1169
    1	681
    2	1104
    3	2448
    4	9937
    5	18607
    6	192074
Skipping balancing since max unbalance 0.0483674 is less than allowable 0.1

Shell refinement iteration 1
----------------------------

Marked for refinement due to distance to explicit features : 0 cells.
Marked for refinement due to refinement shells             : 2412 cells.
Determined cells to refine in = 0.43 s
Selected for internal refinement : 4877 cells (out of 226020)
Edge intersection testing:
    Number of edges             : 823446
    Number of edges to retest   : 236093
    Number of intersected edges : 57369
Refined mesh in = 1.43 s
After refinement shell refinement iteration 1 : cells:260159  faces:823446  points:300916
Cells per refinement level:
    0	1060
    1	1301
    2	2628
    3	4448
    4	24723
    5	22837
    6	203162
Skipping balancing since max unbalance 0.0497855 is less than allowable 0.1

Shell refinement iteration 2
----------------------------

Marked for refinement due to distance to explicit features : 0 cells.
Marked for refinement due to refinement shells             : 3888 cells.
Determined cells to refine in = 0.39 s
Selected for internal refinement : 4595 cells (out of 260159)
Edge intersection testing:
    Number of edges             : 922305
    Number of edges to retest   : 140176
    Number of intersected edges : 57372
Refined mesh in = 1.54 s
After refinement shell refinement iteration 2 : cells:292324  faces:922305  points:335482
Cells per refinement level:
    0	996
    1	1557
    2	3460
    3	11232
    4	48170
    5	23667
    6	203242
Skipping balancing since max unbalance 0.0960441 is less than allowable 0.1

Shell refinement iteration 3
----------------------------

Marked for refinement due to distance to explicit features : 0 cells.
Marked for refinement due to refinement shells             : 7912 cells.
Determined cells to refine in = 0.39 s
Selected for internal refinement : 8472 cells (out of 292324)
Edge intersection testing:
    Number of edges             : 1104231
    Number of edges to retest   : 224121
    Number of intersected edges : 57372
Refined mesh in = 1.89 s
After refinement shell refinement iteration 3 : cells:351628  faces:1104231  points:398842
Cells per refinement level:
    0	974
    1	1517
    2	4506
    3	9136
    4	108586
    5	23667
    6	203242
Balanced mesh in = 3.48 s
After balancing shell refinement iteration 3 : cells:351628  faces:1104231  points:398848
Cells per refinement level:
    0	974
    1	1517
    2	4506
    3	9136
    4	108586
    5	23667
    6	203242

Shell refinement iteration 4
----------------------------

Marked for refinement due to distance to explicit features : 0 cells.
Marked for refinement due to refinement shells             : 2880 cells.
Determined cells to refine in = 0.4 s
Selected for internal refinement : 3409 cells (out of 351628)
Edge intersection testing:
    Number of edges             : 1176447
    Number of edges to retest   : 114633
    Number of intersected edges : 57376
Refined mesh in = 1.72 s
After refinement shell refinement iteration 4 : cells:375491  faces:1176447  points:423336
Cells per refinement level:
    0	936
    1	1737
    2	4776
    3	9472
    4	131624
    5	23680
    6	203266
Skipping balancing since max unbalance 0.0642577 is less than allowable 0.1

Shell refinement iteration 5
----------------------------

Marked for refinement due to distance to explicit features : 0 cells.
Marked for refinement due to refinement shells             : 0 cells.
Determined cells to refine in = 0.48 s
Selected for internal refinement : 32 cells (out of 375491)
Edge intersection testing:
    Number of edges             : 1177125
    Number of edges to retest   : 2286
    Number of intersected edges : 57376
Refined mesh in = 1.73 s
After refinement shell refinement iteration 5 : cells:375715  faces:1177125  points:423566
Cells per refinement level:
    0	934
    1	1723
    2	5016
    3	9472
    4	131624
    5	23680
    6	203266
Skipping balancing since max unbalance 0.0648156 is less than allowable 0.1

Shell refinement iteration 6
----------------------------

Marked for refinement due to distance to explicit features : 0 cells.
Marked for refinement due to refinement shells             : 0 cells.
Determined cells to refine in = 0.48 s
Selected for internal refinement : 6 cells (out of 375715)
Stopping refining since too few cells selected.


Dangling coarse cells refinement iteration 0
--------------------------------------------

Determined cells to refine in = 0.01 s
Selected for refinement : 108 cells (out of 375715)
Edge intersection testing:
    Number of edges             : 1178727
    Number of edges to retest   : 12984
    Number of intersected edges : 57381
Refined mesh in = 1.76 s
After refinement coarse cell refinement iteration 0 : cells:376471  faces:1178727  points:423776
Cells per refinement level:
    0	934
    1	1722
    2	5024
    3	9472
    4	131622
    5	23591
    6	204106
Skipping balancing since max unbalance 0.0644623 is less than allowable 0.1

Dangling coarse cells refinement iteration 1
--------------------------------------------

Determined cells to refine in = 0.18 s
Selected for refinement : 13 cells (out of 376471)
Skipping balancing since max unbalance 0.0643241 is less than allowable 0.1
After balancing coarse cell refinement iteration 1 : cells:376471  faces:1178727  points:423776
Cells per refinement level:
    0	934
    1	1722
    2	5024
    3	9472
    4	131622
    5	23591
    6	204106
Edge intersection testing:
    Number of edges             : 1178919
    Number of edges to retest   : 1632
    Number of intersected edges : 57381
Refined mesh in = 1.52 s
After refinement coarse cell refinement iteration 1 : cells:376562  faces:1178919  points:423801
Cells per refinement level:
    0	934
    1	1722
    2	5024
    3	9472
    4	131622
    5	23578
    6	204210

Dangling coarse cells refinement iteration 2
--------------------------------------------

Determined cells to refine in = 0.11 s
Selected for refinement : 1 cells (out of 376562)
Stopping refining since too few cells selected.


Dangling coarse cells refinement iteration 0
--------------------------------------------

Determined cells to refine in = 0.01 s
Selected for refinement : 18 cells (out of 376562)
Skipping balancing since max unbalance 0.0644884 is less than allowable 0.1
After balancing coarse cell refinement iteration 0 : cells:376562  faces:1178919  points:423801
Cells per refinement level:
    0	934
    1	1722
    2	5024
    3	9472
    4	131622
    5	23578
    6	204210
Edge intersection testing:
    Number of edges             : 1179135
    Number of edges to retest   : 2354
    Number of intersected edges : 57381
Refined mesh in = 1.47 s
After refinement coarse cell refinement iteration 0 : cells:376688  faces:1179135  points:423819
Cells per refinement level:
    0	934
    1	1722
    2	5024
    3	9472
    4	131622
    5	23560
    6	204354

Dangling coarse cells refinement iteration 1
--------------------------------------------

Determined cells to refine in = 0.24 s
Selected for refinement : 0 cells (out of 376688)
Stopping refining since too few cells selected.


Splitting mesh at surface intersections
---------------------------------------

Introducing baffles for 57381 faces that are intersected by the surface.

Edge intersection testing:
    Number of edges             : 1236461
    Number of edges to retest   : 309569
    Number of intersected edges : 114596
Created baffles in = 1.49 s


After introducing baffles : cells:376688  faces:1236461  points:423917
Cells per refinement level:
    0	934
    1	1722
    2	5024
    3	9472
    4	131622
    5	23560
    6	204354

Introducing baffles to block off problem cells
----------------------------------------------

markFacesOnProblemCells : marked 43785 additional internal faces to be converted into baffles.
Analyzed problem cells in = 1.04 s


Introducing baffles to delete problem cells.

Edge intersection testing:
    Number of edges             : 1280246
    Number of edges to retest   : 173148
    Number of intersected edges : 114600
Created baffles in = 1.84 s


After introducing baffles : cells:376688  faces:1280246  points:424390
Cells per refinement level:
    0	934
    1	1722
    2	5024
    3	9472
    4	131622
    5	23560
    6	204354

Remove unreachable sections of mesh
-----------------------------------

Keeping all cells in region 0 containing point (3.0001 3.0001 0.43)
Selected for keeping : 324823 cells.
Edge intersection testing:
    Number of edges             : 1040576
    Number of edges to retest   : 0
    Number of intersected edges : 59732
Split mesh in = 5.81 s


After subsetting : cells:324823  faces:1040576  points:381667
Cells per refinement level:
    0	934
    1	1722
    2	5024
    3	9472
    4	131622
    5	23047
    6	153002

Handling cells with snap problems
---------------------------------

Introducing baffles for 59732 faces that are intersected by the surface.

Edge intersection testing:
    Number of edges             : 1040576
    Number of edges to retest   : 181129
    Number of intersected edges : 59732
Created baffles in = 1.21 s


After introducing baffles : cells:324823  faces:1040576  points:381667
Cells per refinement level:
    0	934
    1	1722
    2	5024
    3	9472
    4	131622
    5	23047
    6	153002

Introducing baffles to block off problem cells
----------------------------------------------

markFacesOnProblemCells : marked 81 additional internal faces to be converted into baffles.
Analyzed problem cells in = 0.83 s


Introducing baffles to delete problem cells.

Edge intersection testing:
    Number of edges             : 1040657
    Number of edges to retest   : 446
    Number of intersected edges : 59732
Created baffles in = 0.99 s


After introducing baffles : cells:324823  faces:1040657  points:381667
Cells per refinement level:
    0	934
    1	1722
    2	5024
    3	9472
    4	131622
    5	23047
    6	153002

Remove unreachable sections of mesh
-----------------------------------

Keeping all cells in region 0 containing point (3.0001 3.0001 0.43)
Selected for keeping : 324783 cells.
Edge intersection testing:
    Number of edges             : 1040417
    Number of edges to retest   : 0
    Number of intersected edges : 59667
Split mesh in = 4.05 s


After subsetting : cells:324783  faces:1040417  points:381600
Cells per refinement level:
    0	934
    1	1722
    2	5024
    3	9472
    4	131622
    5	23047
    6	152962

Merge free-standing baffles
---------------------------

freeStandingBaffles : detected 392 free-standing baffles out of 7858

freeStandingBaffles : detected 52 planar (within 30 degrees) free-standing baffles out of 392

Detected free-standing baffles : 52
Edge intersection testing:
    Number of edges             : 1040365
    Number of edges to retest   : 52
    Number of intersected edges : 59615

Introducing baffles to block off problem cells
----------------------------------------------

markFacesOnProblemCells : marked 66 additional internal faces to be converted into baffles.
Analyzed problem cells in = 2.45 s


Introducing baffles to delete problem cells.

Edge intersection testing:
    Number of edges             : 1040431
    Number of edges to retest   : 354
    Number of intersected edges : 59615
Created baffles in = 0.83 s


After introducing baffles : cells:324783  faces:1040431  points:381600
Cells per refinement level:
    0	934
    1	1722
    2	5024
    3	9472
    4	131622
    5	23047
    6	152962
Merged free-standing baffles in = 0.15 s


dupNonManifoldPoints : Found : 8049 non-manifold points (out of 397142)
Edge intersection testing:
    Number of edges             : 1040431
    Number of edges to retest   : 0
    Number of intersected edges : 59615
Detected unsplittable baffles : 122
Edge intersection testing:
    Number of edges             : 1040309
    Number of edges to retest   : 122
    Number of intersected edges : 59493
Keeping all cells in region 0 containing point (3.0001 3.0001 0.43)
Selected for keeping : 324750 cells.
Edge intersection testing:
    Number of edges             : 1040111
    Number of edges to retest   : 0
    Number of intersected edges : 59445
Merged free-standing baffles in = 5.91 s.

Merge refined boundary faces
----------------------------

Merging 50 sets of faces.

Edge intersection testing:
    Number of edges             : 1040037
    Number of edges to retest   : 469
    Number of intersected edges : 59369

Undo iteration 0
----------------
Checking faces in error :
    non-orthogonality > 65  degrees                        : 0
    faces with face pyramid volume < 1e-13                 : 0
    faces with face-decomposition tet quality < 1e-15      : 0
    faces with concavity > 80  degrees                     : 0
    faces with skewness > 4   (internal) or 20  (boundary) : 0
    faces with interpolation weights (0..1)  < 0.02        : 0
    faces with volume ratio of neighbour cells < 0.01      : 0
    faces with face twist < 0.02                           : 0
    faces on cells with determinant < 0.001                : 0

Merging all points on surface that
- are used by only two boundary faces and
- make an angle with a cosine of more than 0.707107.

Removing 58 straight edge points ...

Edge intersection testing:
    Number of edges             : 1040037
    Number of edges to retest   : 542
    Number of intersected edges : 59369

Undo iteration 0
----------------
Checking faces in error :
    non-orthogonality > 65  degrees                        : 0
    faces with face pyramid volume < 1e-13                 : 0
    faces with face-decomposition tet quality < 1e-15      : 0
    faces with concavity > 80  degrees                     : 0
    faces with skewness > 4   (internal) or 20  (boundary) : 0
    faces with interpolation weights (0..1)  < 0.02        : 0
    faces with volume ratio of neighbour cells < 0.01      : 0
    faces with face twist < 0.02                           : 0
    faces on cells with determinant < 0.001                : 0

Doing final balancing
---------------------

Found 0 zoned faces to keep together.
Found 0 separated coupled faces to keep together.
Refined mesh : cells:324750  faces:1040037  points:389318
Cells per refinement level:
    0	934
    1	1722
    2	5024
    3	9472
    4	131622
    5	23047
    6	152929
Writing mesh to time constant
Wrote mesh in = 6.23 s.
Mesh refined in = 64.72 s.

Morphing phase
--------------


Snapping to features in 10 iterations ...
Constructing mesh displacer ...
Using mesh parameters 
{
    maxNonOrtho     65;
    maxBoundarySkewness 20;
    maxInternalSkewness 4;
    maxConcave      80;
    minVol          1e-13;
    minTetQuality   1e-15;
    minArea         -1;
    minTwist        0.02;
    minDeterminant  0.001;
    minFaceWeight   0.02;
    minVolRatio     0.01;
    minTriangleTwist -1;
    nSmoothScale    4;
    errorReduction  0.75;
}


Checking initial mesh ...
Checking faces in error :
    non-orthogonality > 65  degrees                        : 0
    faces with face pyramid volume < 1e-13                 : 0
    faces with face-decomposition tet quality < 1e-15      : 0
    faces with concavity > 80  degrees                     : 0
    faces with skewness > 4   (internal) or 20  (boundary) : 0
    faces with interpolation weights (0..1)  < 0.02        : 0
    faces with volume ratio of neighbour cells < 0.01      : 0
    faces with face twist < 0.02                           : 0
    faces on cells with determinant < 0.001                : 0
Detected 0 illegal faces (concave, zero area or negative cell pyramid volume)
Checked initial mesh in = 1.03 s


Smoothing patch points ...
Smoothing iteration 0
Found 15889 non-manifold point(s).

Scaling iteration 0
Moving mesh using displacement scaling : min:1  max:1
Checking faces in error :
    non-orthogonality > 65  degrees                        : 0
    faces with face pyramid volume < 1e-13                 : 0
    faces with face-decomposition tet quality < 1e-15      : 1
    faces with concavity > 80  degrees                     : 0
    faces with skewness > 4   (internal) or 20  (boundary) : 0
    faces with interpolation weights (0..1)  < 0.02        : 0
    faces with volume ratio of neighbour cells < 0.01      : 0
    faces with face twist < 0.02                           : 0
    faces on cells with determinant < 0.001                : 0

Scaling iteration 1
Moving mesh using displacement scaling : min:0.75  max:1
Checking faces in error :
    non-orthogonality > 65  degrees                        : 0
    faces with face pyramid volume < 1e-13                 : 0
    faces with face-decomposition tet quality < 1e-15      : 0
    faces with concavity > 80  degrees                     : 0
    faces with skewness > 4   (internal) or 20  (boundary) : 0
    faces with interpolation weights (0..1)  < 0.02        : 0
    faces with volume ratio of neighbour cells < 0.01      : 0
    faces with face twist < 0.02                           : 0
    faces on cells with determinant < 0.001                : 0
Successfully moved mesh

Smoothing iteration 1
Found 0 non-manifold point(s).

Scaling iteration 0
Moving mesh using displacement scaling : min:1  max:1
Checking faces in error :
    non-orthogonality > 65  degrees                        : 0
    faces with face pyramid volume < 1e-13                 : 0
    faces with face-decomposition tet quality < 1e-15      : 0
    faces with concavity > 80  degrees                     : 0
    faces with skewness > 4   (internal) or 20  (boundary) : 0
    faces with interpolation weights (0..1)  < 0.02        : 0
    faces with volume ratio of neighbour cells < 0.01      : 0
    faces with face twist < 0.02                           : 1
    faces on cells with determinant < 0.001                : 0

Scaling iteration 1
Moving mesh using displacement scaling : min:0.75  max:1
Checking faces in error :
    non-orthogonality > 65  degrees                        : 0
    faces with face pyramid volume < 1e-13                 : 0
    faces with face-decomposition tet quality < 1e-15      : 0
    faces with concavity > 80  degrees                     : 0
    faces with skewness > 4   (internal) or 20  (boundary) : 0
    faces with interpolation weights (0..1)  < 0.02        : 0
    faces with volume ratio of neighbour cells < 0.01      : 0
    faces with face twist < 0.02                           : 0
    faces on cells with determinant < 0.001                : 0
Successfully moved mesh

Smoothing iteration 2
Found 0 non-manifold point(s).

Scaling iteration 0
Moving mesh using displacement scaling : min:1  max:1
Checking faces in error :
    non-orthogonality > 65  degrees                        : 0
    faces with face pyramid volume < 1e-13                 : 0
    faces with face-decomposition tet quality < 1e-15      : 0
    faces with concavity > 80  degrees                     : 0
    faces with skewness > 4   (internal) or 20  (boundary) : 0
    faces with interpolation weights (0..1)  < 0.02        : 0
    faces with volume ratio of neighbour cells < 0.01      : 0
    faces with face twist < 0.02                           : 0
    faces on cells with determinant < 0.001                : 0
Successfully moved mesh

Patch points smoothed in = 4.19 s



Morph iteration 0
-----------------
Calculating patchDisplacement as distance to nearest surface point ...
Wanted displacement : average:0.00361232 min:1.45156e-08 max:0.0206005
Calculated surface displacement in = 0.19 s


Detecting near surfaces ...
Overriding nearest with intersection of close gaps at 206 out of 63646 points.
Overriding displacement on features :
   implicit features    : false
   explicit features    : true
   multi-patch features : false

Detected 1525 baffle edges out of 125482 edges.
Initially selected 21912 points out of 63646 for reverse attraction.
Selected 42285 points out of 63646 for reverse attraction.
Stringing feature edges : changed 1909 points
Stringing feature edges : changed 168 points
Stringing feature edges : changed 39 points
Stringing feature edges : changed 11 points
Stringing feature edges : changed 7 points
Stringing feature edges : changed 1 points
Stringing feature edges : changed 1 points
Stringing feature edges : changed 2 points
Stringing feature edges : changed 3 points
Stringing feature edges : changed 1 points
Stringing feature edges : changed 3 points
Stringing feature edges : changed 0 points
Attraction:
     linear   : max:(-0.0203253 0.00334796 0.000232783) avg:(-1.16811e-05 -3.353e-05 7.92418e-06)
     feature  : max:(0.0603267 -0.00692117 -0.00691786) avg:(2.30049e-05 1.68631e-05 -1.20629e-05)
Feature analysis : total master points:61703 attraction to :
    feature point   : 1095
    feature edge    : 10938
    nearest surface : 0
    rest            : 49670

--> FOAM Warning : Displacement (0.000112743 3.69742e-05 -1.00262e-05) at mesh point 3157 coord (0.749644 -0.239896 0.484658) points through the surrounding patch faces
Smoothing displacement ...
Iteration 0
Iteration 10
Iteration 20
Displacement smoothed in = 2.23 s


Moving mesh ...

Iteration 0
Moving mesh using displacement scaling : min:1  max:1
Checking faces in error :
    non-orthogonality > 65  degrees                        : 0
    faces with face pyramid volume < 1e-13                 : 0
    faces with face-decomposition tet quality < 1e-15      : 0
    faces with concavity > 80  degrees                     : 0
    faces with skewness > 4   (internal) or 20  (boundary) : 0
    faces with interpolation weights (0..1)  < 0.02        : 0
    faces with volume ratio of neighbour cells < 0.01      : 0
    faces with face twist < 0.02                           : 0
    faces on cells with determinant < 0.001                : 0
Successfully moved mesh
Moved mesh in = 1.04 s



Morph iteration 1
-----------------
Calculating patchDisplacement as distance to nearest surface point ...
Wanted displacement : average:0.00337319 min:3.73739e-08 max:0.0206786
Calculated surface displacement in = 0.19 s


Detecting near surfaces ...
Overriding nearest with intersection of close gaps at 198 out of 63646 points.
Overriding displacement on features :
   implicit features    : false
   explicit features    : true
   multi-patch features : false

Detected 1553 baffle edges out of 125482 edges.
Initially selected 21718 points out of 63646 for reverse attraction.
Selected 42325 points out of 63646 for reverse attraction.
Stringing feature edges : changed 1903 points
Stringing feature edges : changed 158 points
Stringing feature edges : changed 44 points
Stringing feature edges : changed 20 points
Stringing feature edges : changed 7 points
Stringing feature edges : changed 6 points
Stringing feature edges : changed 0 points
Attraction:
     linear   : max:(-0.0204023 0.00336064 0.000233664) avg:(-1.49621e-05 -3.17533e-05 6.73496e-06)
     feature  : max:(0.0573932 0.0026789 -0.0177081) avg:(2.85664e-05 1.83875e-05 -9.95723e-06)
Feature analysis : total master points:61703 attraction to :
    feature point   : 1126
    feature edge    : 10971
    nearest surface : 0
    rest            : 49606

--> FOAM Warning : Displacement (0.000488801 -0.000443197 -0.000418114) at mesh point 3340 coord (0.751667 -0.25356 0.487108) points through the surrounding patch faces
Smoothing displacement ...
Iteration 0
Iteration 10
Iteration 20
Displacement smoothed in = 2.22 s


Moving mesh ...

Iteration 0
Moving mesh using displacement scaling : min:1  max:1
Checking faces in error :
    non-orthogonality > 65  degrees                        : 0
    faces with face pyramid volume < 1e-13                 : 0
    faces with face-decomposition tet quality < 1e-15      : 0
    faces with concavity > 80  degrees                     : 0
    faces with skewness > 4   (internal) or 20  (boundary) : 0
    faces with interpolation weights (0..1)  < 0.02        : 0
    faces with volume ratio of neighbour cells < 0.01      : 0
    faces with face twist < 0.02                           : 0
    faces on cells with determinant < 0.001                : 0
Successfully moved mesh
Moved mesh in = 1.05 s



Morph iteration 2
-----------------
Calculating patchDisplacement as distance to nearest surface point ...
Wanted displacement : average:0.0029228 min:2.77663e-08 max:0.0203062
Calculated surface displacement in = 0.16 s


Detecting near surfaces ...
Overriding nearest with intersection of close gaps at 217 out of 63646 points.
Overriding displacement on features :
   implicit features    : false
   explicit features    : true
   multi-patch features : false

Detected 1586 baffle edges out of 125482 edges.
Initially selected 21912 points out of 63646 for reverse attraction.
Selected 42313 points out of 63646 for reverse attraction.
Stringing feature edges : changed 1835 points
Stringing feature edges : changed 149 points
Stringing feature edges : changed 44 points
Stringing feature edges : changed 13 points
Stringing feature edges : changed 8 points
Stringing feature edges : changed 3 points
Stringing feature edges : changed 2 points
Stringing feature edges : changed 2 points
Stringing feature edges : changed 1 points
Stringing feature edges : changed 1 points
Stringing feature edges : changed 5 points
Stringing feature edges : changed 0 points
Attraction:
     linear   : max:(-0.0143352 0.0143802 0.000232122) avg:(-1.83845e-05 -2.37766e-05 5.61706e-06)
     feature  : max:(0.0564595 -0.00583732 -0.000733664) avg:(2.29105e-05 1.06606e-05 -6.7217e-06)
Feature analysis : total master points:61703 attraction to :
    feature point   : 1135
    feature edge    : 11032
    nearest surface : 0
    rest            : 49536

--> FOAM Warning : Displacement (0.000614636 -0.000458625 -0.000578001) at mesh point 3340 coord (0.752156 -0.254003 0.48669) points through the surrounding patch faces
Smoothing displacement ...
Iteration 0
Iteration 10
Iteration 20
Displacement smoothed in = 2.11 s


Moving mesh ...

Iteration 0
Moving mesh using displacement scaling : min:1  max:1
Checking faces in error :
    non-orthogonality > 65  degrees                        : 0
    faces with face pyramid volume < 1e-13                 : 0
    faces with face-decomposition tet quality < 1e-15      : 0
    faces with concavity > 80  degrees                     : 0
    faces with skewness > 4   (internal) or 20  (boundary) : 0
    faces with interpolation weights (0..1)  < 0.02        : 0
    faces with volume ratio of neighbour cells < 0.01      : 0
    faces with face twist < 0.02                           : 0
    faces on cells with determinant < 0.001                : 0
Successfully moved mesh
Moved mesh in = 1.03 s



Morph iteration 3
-----------------
Calculating patchDisplacement as distance to nearest surface point ...
Wanted displacement : average:0.00234666 min:4.49891e-08 max:0.0192603
Calculated surface displacement in = 0.14 s


Detecting near surfaces ...
Overriding nearest with intersection of close gaps at 268 out of 63646 points.
Overriding displacement on features :
   implicit features    : false
   explicit features    : true
   multi-patch features : false

Detected 1614 baffle edges out of 125482 edges.
Initially selected 22132 points out of 63646 for reverse attraction.
Selected 42371 points out of 63646 for reverse attraction.
Stringing feature edges : changed 1791 points
Stringing feature edges : changed 156 points
Stringing feature edges : changed 42 points
Stringing feature edges : changed 13 points
Stringing feature edges : changed 6 points
Stringing feature edges : changed 4 points
Stringing feature edges : changed 0 points
Attraction:
     linear   : max:(-0.0135968 0.0136395 0.000220166) avg:(-2.16362e-05 -1.59027e-05 2.03203e-06)
     feature  : max:(0.0512635 -0.00431058 0.000741443) avg:(1.98595e-05 9.90408e-06 -1.79942e-05)
Feature analysis : total master points:61703 attraction to :
    feature point   : 1142
    feature edge    : 11067
    nearest surface : 0
    rest            : 49494

--> FOAM Warning : Displacement (0.000619159 -0.000314456 -0.000655063) at mesh point 3340 coord (0.752771 -0.254461 0.486112) points through the surrounding patch faces
Smoothing displacement ...
Iteration 0
Iteration 10
Iteration 20
Displacement smoothed in = 2 s


Moving mesh ...

Iteration 0
Moving mesh using displacement scaling : min:1  max:1
Checking faces in error :
    non-orthogonality > 65  degrees                        : 0
    faces with face pyramid volume < 1e-13                 : 2
    faces with face-decomposition tet quality < 1e-15      : 10
    faces with concavity > 80  degrees                     : 0
    faces with skewness > 4   (internal) or 20  (boundary) : 0
    faces with interpolation weights (0..1)  < 0.02        : 0
    faces with volume ratio of neighbour cells < 0.01      : 0
    faces with face twist < 0.02                           : 3
    faces on cells with determinant < 0.001                : 0

Iteration 1
Moving mesh using displacement scaling : min:0.75  max:1
Checking faces in error :
    non-orthogonality > 65  degrees                        : 0
    faces with face pyramid volume < 1e-13                 : 1
    faces with face-decomposition tet quality < 1e-15      : 6
    faces with concavity > 80  degrees                     : 0
    faces with skewness > 4   (internal) or 20  (boundary) : 0
    faces with interpolation weights (0..1)  < 0.02        : 0
    faces with volume ratio of neighbour cells < 0.01      : 0
    faces with face twist < 0.02                           : 0
    faces on cells with determinant < 0.001                : 0

Iteration 2
Moving mesh using displacement scaling : min:0.5625  max:1
Checking faces in error :
    non-orthogonality > 65  degrees                        : 0
    faces with face pyramid volume < 1e-13                 : 1
    faces with face-decomposition tet quality < 1e-15      : 4
    faces with concavity > 80  degrees                     : 0
    faces with skewness > 4   (internal) or 20  (boundary) : 0
    faces with interpolation weights (0..1)  < 0.02        : 0
    faces with volume ratio of neighbour cells < 0.01      : 0
    faces with face twist < 0.02                           : 1
    faces on cells with determinant < 0.001                : 0

Iteration 3
Moving mesh using displacement scaling : min:0.421875  max:1
Checking faces in error :
    non-orthogonality > 65  degrees                        : 0
    faces with face pyramid volume < 1e-13                 : 1
    faces with face-decomposition tet quality < 1e-15      : 2
    faces with concavity > 80  degrees                     : 0
    faces with skewness > 4   (internal) or 20  (boundary) : 0
    faces with interpolation weights (0..1)  < 0.02        : 0
    faces with volume ratio of neighbour cells < 0.01      : 0
    faces with face twist < 0.02                           : 0
    faces on cells with determinant < 0.001                : 0

Iteration 4
Moving mesh using displacement scaling : min:0.316406  max:1
Checking faces in error :
    non-orthogonality > 65  degrees                        : 0
    faces with face pyramid volume < 1e-13                 : 1
    faces with face-decomposition tet quality < 1e-15      : 1
    faces with concavity > 80  degrees                     : 0
    faces with skewness > 4   (internal) or 20  (boundary) : 0
    faces with interpolation weights (0..1)  < 0.02        : 0
    faces with volume ratio of neighbour cells < 0.01      : 0
    faces with face twist < 0.02                           : 1
    faces on cells with determinant < 0.001                : 0

Iteration 5
Displacement scaling for error reduction set to 0.
Moving mesh using displacement scaling : min:0.237305  max:1
Checking faces in error :
    non-orthogonality > 65  degrees                        : 0
    faces with face pyramid volume < 1e-13                 : 0
    faces with face-decomposition tet quality < 1e-15      : 2
    faces with concavity > 80  degrees                     : 0
    faces with skewness > 4   (internal) or 20  (boundary) : 0
    faces with interpolation weights (0..1)  < 0.02        : 0
    faces with volume ratio of neighbour cells < 0.01      : 0
    faces with face twist < 0.02                           : 0
    faces on cells with determinant < 0.001                : 0

Iteration 6
Moving mesh using displacement scaling : min:0  max:1
Checking faces in error :
    non-orthogonality > 65  degrees                        : 0
    faces with face pyramid volume < 1e-13                 : 0
    faces with face-decomposition tet quality < 1e-15      : 0
    faces with concavity > 80  degrees                     : 0
    faces with skewness > 4   (internal) or 20  (boundary) : 0
    faces with interpolation weights (0..1)  < 0.02        : 0
    faces with volume ratio of neighbour cells < 0.01      : 0
    faces with face twist < 0.02                           : 0
    faces on cells with determinant < 0.001                : 0
Successfully moved mesh
Moved mesh in = 3.16 s



Morph iteration 4
-----------------
Calculating patchDisplacement as distance to nearest surface point ...
Wanted displacement : average:0.00174467 min:1.87085e-08 max:0.0181544
Calculated surface displacement in = 0.13 s


Detecting near surfaces ...
Overriding nearest with intersection of close gaps at 405 out of 63646 points.
Overriding displacement on features :
   implicit features    : false
   explicit features    : true
   multi-patch features : false

Detected 1638 baffle edges out of 125482 edges.
Initially selected 22309 points out of 63646 for reverse attraction.
Selected 42368 points out of 63646 for reverse attraction.
Stringing feature edges : changed 1738 points
Stringing feature edges : changed 135 points
Stringing feature edges : changed 34 points
Stringing feature edges : changed 8 points
Stringing feature edges : changed 8 points
Stringing feature edges : changed 3 points
Stringing feature edges : changed 1 points
Stringing feature edges : changed 0 points
Attraction:
     linear   : max:(-2.30878e-05 -0.018153 -0.000224847) avg:(-2.37783e-05 -7.34225e-06 -7.24567e-07)
     feature  : max:(0.0114738 0.00321611 -0.0501802) avg:(1.97663e-05 1.60881e-05 -1.35744e-05)
Feature analysis : total master points:61703 attraction to :
    feature point   : 1159
    feature edge    : 11126
    nearest surface : 0
    rest            : 49418

--> FOAM Warning : Displacement (0.00052688 -8.40659e-05 -0.000643344) at mesh point 3340 coord (0.75339 -0.254776 0.485457) points through the surrounding patch faces
Smoothing displacement ...
Iteration 0
Iteration 10
Iteration 20
Displacement smoothed in = 2.06 s


Moving mesh ...

Iteration 0
Moving mesh using displacement scaling : min:1  max:1
Checking faces in error :
    non-orthogonality > 65  degrees                        : 2
    faces with face pyramid volume < 1e-13                 : 10
    faces with face-decomposition tet quality < 1e-15      : 77
    faces with concavity > 80  degrees                     : 0
    faces with skewness > 4   (internal) or 20  (boundary) : 0
    faces with interpolation weights (0..1)  < 0.02        : 0
    faces with volume ratio of neighbour cells < 0.01      : 0
    faces with face twist < 0.02                           : 12
    faces on cells with determinant < 0.001                : 0

Iteration 1
Moving mesh using displacement scaling : min:0.75  max:1
Checking faces in error :
    non-orthogonality > 65  degrees                        : 2
    faces with face pyramid volume < 1e-13                 : 3
    faces with face-decomposition tet quality < 1e-15      : 50
    faces with concavity > 80  degrees                     : 0
    faces with skewness > 4   (internal) or 20  (boundary) : 0
    faces with interpolation weights (0..1)  < 0.02        : 0
    faces with volume ratio of neighbour cells < 0.01      : 0
    faces with face twist < 0.02                           : 11
    faces on cells with determinant < 0.001                : 0

Iteration 2
Moving mesh using displacement scaling : min:0.5625  max:1
Checking faces in error :
    non-orthogonality > 65  degrees                        : 2
    faces with face pyramid volume < 1e-13                 : 2
    faces with face-decomposition tet quality < 1e-15      : 36
    faces with concavity > 80  degrees                     : 0
    faces with skewness > 4   (internal) or 20  (boundary) : 0
    faces with interpolation weights (0..1)  < 0.02        : 0
    faces with volume ratio of neighbour cells < 0.01      : 0
    faces with face twist < 0.02                           : 3
    faces on cells with determinant < 0.001                : 0

Iteration 3
Moving mesh using displacement scaling : min:0.421875  max:1
Checking faces in error :
    non-orthogonality > 65  degrees                        : 1
    faces with face pyramid volume < 1e-13                 : 1
    faces with face-decomposition tet quality < 1e-15      : 25
    faces with concavity > 80  degrees                     : 0
    faces with skewness > 4   (internal) or 20  (boundary) : 0
    faces with interpolation weights (0..1)  < 0.02        : 0
    faces with volume ratio of neighbour cells < 0.01      : 0
    faces with face twist < 0.02                           : 9
    faces on cells with determinant < 0.001                : 0

Iteration 4
Moving mesh using displacement scaling : min:0.316406  max:1
Checking faces in error :
    non-orthogonality > 65  degrees                        : 1
    faces with face pyramid volume < 1e-13                 : 1
    faces with face-decomposition tet quality < 1e-15      : 17
    faces with concavity > 80  degrees                     : 0
    faces with skewness > 4   (internal) or 20  (boundary) : 0
    faces with interpolation weights (0..1)  < 0.02        : 0
    faces with volume ratio of neighbour cells < 0.01      : 0
    faces with face twist < 0.02                           : 7
    faces on cells with determinant < 0.001                : 0

Iteration 5
Displacement scaling for error reduction set to 0.
Moving mesh using displacement scaling : min:0.237305  max:1
Checking faces in error :
    non-orthogonality > 65  degrees                        : 1
    faces with face pyramid volume < 1e-13                 : 1
    faces with face-decomposition tet quality < 1e-15      : 16
    faces with concavity > 80  degrees                     : 0
    faces with skewness > 4   (internal) or 20  (boundary) : 0
    faces with interpolation weights (0..1)  < 0.02        : 0
    faces with volume ratio of neighbour cells < 0.01      : 0
    faces with face twist < 0.02                           : 4
    faces on cells with determinant < 0.001                : 0

Iteration 6
Moving mesh using displacement scaling : min:0  max:1
Checking faces in error :
    non-orthogonality > 65  degrees                        : 0
    faces with face pyramid volume < 1e-13                 : 0
    faces with face-decomposition tet quality < 1e-15      : 0
    faces with concavity > 80  degrees                     : 0
    faces with skewness > 4   (internal) or 20  (boundary) : 0
    faces with interpolation weights (0..1)  < 0.02        : 0
    faces with volume ratio of neighbour cells < 0.01      : 0
    faces with face twist < 0.02                           : 0
    faces on cells with determinant < 0.001                : 0
Successfully moved mesh
Moved mesh in = 3.81 s



Morph iteration 5
-----------------
Calculating patchDisplacement as distance to nearest surface point ...
Wanted displacement : average:0.00120376 min:1.10922e-08 max:0.0180292
Calculated surface displacement in = 0.12 s


Detecting near surfaces ...
Overriding nearest with intersection of close gaps at 591 out of 63646 points.
Overriding displacement on features :
   implicit features    : false
   explicit features    : true
   multi-patch features : false

Detected 1761 baffle edges out of 125482 edges.
Initially selected 22413 points out of 63646 for reverse attraction.
Selected 42456 points out of 63646 for reverse attraction.
Stringing feature edges : changed 1654 points
Stringing feature edges : changed 123 points
Stringing feature edges : changed 30 points
Stringing feature edges : changed 17 points
Stringing feature edges : changed 7 points
Stringing feature edges : changed 2 points
Stringing feature edges : changed 0 points
Attraction:
     linear   : max:(-2.29286e-05 -0.0180278 -0.000223297) avg:(-2.25916e-05 -9.70862e-07 -3.14087e-06)
     feature  : max:(-0.00434767 0.0414008 -0.000288407) avg:(1.0818e-05 1.44829e-05 -6.71626e-06)
Feature analysis : total master points:61703 attraction to :
    feature point   : 1150
    feature edge    : 11279
    nearest surface : 0
    rest            : 49274

--> FOAM Warning : Displacement (0.00038756 0.000119964 -0.00055526) at mesh point 3340 coord (0.753917 -0.25486 0.484814) points through the surrounding patch faces
Smoothing displacement ...
Iteration 0
Iteration 10
Iteration 20
Displacement smoothed in = 2.03 s


Moving mesh ...

Iteration 0
Moving mesh using displacement scaling : min:1  max:1
Checking faces in error :
    non-orthogonality > 65  degrees                        : 2
    faces with face pyramid volume < 1e-13                 : 33
    faces with face-decomposition tet quality < 1e-15      : 267
    faces with concavity > 80  degrees                     : 2
    faces with skewness > 4   (internal) or 20  (boundary) : 0
    faces with interpolation weights (0..1)  < 0.02        : 0
    faces with volume ratio of neighbour cells < 0.01      : 0
    faces with face twist < 0.02                           : 40
    faces on cells with determinant < 0.001                : 0

Iteration 1
Moving mesh using displacement scaling : min:0.75  max:1
Checking faces in error :
    non-orthogonality > 65  degrees                        : 2
    faces with face pyramid volume < 1e-13                 : 22
    faces with face-decomposition tet quality < 1e-15      : 185
    faces with concavity > 80  degrees                     : 2
    faces with skewness > 4   (internal) or 20  (boundary) : 0
    faces with interpolation weights (0..1)  < 0.02        : 0
    faces with volume ratio of neighbour cells < 0.01      : 0
    faces with face twist < 0.02                           : 28
    faces on cells with determinant < 0.001                : 0

Iteration 2
Moving mesh using displacement scaling : min:0.5625  max:1
Checking faces in error :
    non-orthogonality > 65  degrees                        : 1
    faces with face pyramid volume < 1e-13                 : 14
    faces with face-decomposition tet quality < 1e-15      : 144
    faces with concavity > 80  degrees                     : 0
    faces with skewness > 4   (internal) or 20  (boundary) : 0
    faces with interpolation weights (0..1)  < 0.02        : 0
    faces with volume ratio of neighbour cells < 0.01      : 0
    faces with face twist < 0.02                           : 27
    faces on cells with determinant < 0.001                : 0

Iteration 3
Moving mesh using displacement scaling : min:0.421875  max:1
Checking faces in error :
    non-orthogonality > 65  degrees                        : 1
    faces with face pyramid volume < 1e-13                 : 10
    faces with face-decomposition tet quality < 1e-15      : 120
    faces with concavity > 80  degrees                     : 0
    faces with skewness > 4   (internal) or 20  (boundary) : 0
    faces with interpolation weights (0..1)  < 0.02        : 0
    faces with volume ratio of neighbour cells < 0.01      : 0
    faces with face twist < 0.02                           : 22
    faces on cells with determinant < 0.001                : 0

Iteration 4
Moving mesh using displacement scaling : min:0.316406  max:1
Checking faces in error :
    non-orthogonality > 65  degrees                        : 1
    faces with face pyramid volume < 1e-13                 : 8
    faces with face-decomposition tet quality < 1e-15      : 97
    faces with concavity > 80  degrees                     : 0
    faces with skewness > 4   (internal) or 20  (boundary) : 0
    faces with interpolation weights (0..1)  < 0.02        : 0
    faces with volume ratio of neighbour cells < 0.01      : 0
    faces with face twist < 0.02                           : 17
    faces on cells with determinant < 0.001                : 0

Iteration 5
Displacement scaling for error reduction set to 0.
Moving mesh using displacement scaling : min:0.237305  max:1
Checking faces in error :
    non-orthogonality > 65  degrees                        : 1
    faces with face pyramid volume < 1e-13                 : 5
    faces with face-decomposition tet quality < 1e-15      : 74
    faces with concavity > 80  degrees                     : 0
    faces with skewness > 4   (internal) or 20  (boundary) : 0
    faces with interpolation weights (0..1)  < 0.02        : 0
    faces with volume ratio of neighbour cells < 0.01      : 0
    faces with face twist < 0.02                           : 26
    faces on cells with determinant < 0.001                : 0

Iteration 6
Moving mesh using displacement scaling : min:0  max:1
Checking faces in error :
    non-orthogonality > 65  degrees                        : 0
    faces with face pyramid volume < 1e-13                 : 0
    faces with face-decomposition tet quality < 1e-15      : 0
    faces with concavity > 80  degrees                     : 0
    faces with skewness > 4   (internal) or 20  (boundary) : 0
    faces with interpolation weights (0..1)  < 0.02        : 0
    faces with volume ratio of neighbour cells < 0.01      : 0
    faces with face twist < 0.02                           : 0
    faces on cells with determinant < 0.001                : 0
Successfully moved mesh
Moved mesh in = 5.18 s



Morph iteration 6
-----------------
Calculating patchDisplacement as distance to nearest surface point ...
Wanted displacement : average:0.000782202 min:1.10898e-08 max:0.0179266
Calculated surface displacement in = 0.1 s


Detecting near surfaces ...
Overriding nearest with intersection of close gaps at 985 out of 63646 points.
Overriding displacement on features :
   implicit features    : false
   explicit features    : true
   multi-patch features : false

Detected 1996 baffle edges out of 125482 edges.
Initially selected 22719 points out of 63646 for reverse attraction.
Selected 42498 points out of 63646 for reverse attraction.
Stringing feature edges : changed 1604 points
Stringing feature edges : changed 168 points
Stringing feature edges : changed 57 points
Stringing feature edges : changed 15 points
Stringing feature edges : changed 6 points
Stringing feature edges : changed 6 points
Stringing feature edges : changed 3 points
Stringing feature edges : changed 2 points
Stringing feature edges : changed 0 points
Attraction:
     linear   : max:(-2.25644e-05 -0.0179252 -0.000223273) avg:(-1.9226e-05 4.89557e-06 -5.58814e-06)
     feature  : max:(-0.0200303 0.0143453 0.0469301) avg:(1.10611e-06 1.55377e-05 -1.24509e-05)
Feature analysis : total master points:61703 attraction to :
    feature point   : 1209
    feature edge    : 11433
    nearest surface : 0
    rest            : 49061

--> FOAM Warning : Displacement (0.000244257 0.000209153 -0.000413448) at mesh point 3340 coord (0.754304 -0.25474 0.484258) points through the surrounding patch faces
Smoothing displacement ...
Iteration 0
Iteration 10
Iteration 20
Displacement smoothed in = 2.66 s


Moving mesh ...

Iteration 0
Moving mesh using displacement scaling : min:1  max:1
Checking faces in error :
    non-orthogonality > 65  degrees                        : 17
    faces with face pyramid volume < 1e-13                 : 81
    faces with face-decomposition tet quality < 1e-15      : 601
    faces with concavity > 80  degrees                     : 12
    faces with skewness > 4   (internal) or 20  (boundary) : 0
    faces with interpolation weights (0..1)  < 0.02        : 0
    faces with volume ratio of neighbour cells < 0.01      : 0
    faces with face twist < 0.02                           : 34
    faces on cells with determinant < 0.001                : 0

Iteration 1
Moving mesh using displacement scaling : min:0.75  max:1
Checking faces in error :
    non-orthogonality > 65  degrees                        : 5
    faces with face pyramid volume < 1e-13                 : 59
    faces with face-decomposition tet quality < 1e-15      : 489
    faces with concavity > 80  degrees                     : 8
    faces with skewness > 4   (internal) or 20  (boundary) : 0
    faces with interpolation weights (0..1)  < 0.02        : 0
    faces with volume ratio of neighbour cells < 0.01      : 0
    faces with face twist < 0.02                           : 34
    faces on cells with determinant < 0.001                : 0

Iteration 2
Moving mesh using displacement scaling : min:0.5625  max:1
Checking faces in error :
    non-orthogonality > 65  degrees                        : 4
    faces with face pyramid volume < 1e-13                 : 37
    faces with face-decomposition tet quality < 1e-15      : 407
    faces with concavity > 80  degrees                     : 5
    faces with skewness > 4   (internal) or 20  (boundary) : 0
    faces with interpolation weights (0..1)  < 0.02        : 0
    faces with volume ratio of neighbour cells < 0.01      : 0
    faces with face twist < 0.02                           : 30
    faces on cells with determinant < 0.001                : 0

Iteration 3
Moving mesh using displacement scaling : min:0.421875  max:1
Checking faces in error :
    non-orthogonality > 65  degrees                        : 2
    faces with face pyramid volume < 1e-13                 : 26
    faces with face-decomposition tet quality < 1e-15      : 335
    faces with concavity > 80  degrees                     : 4
    faces with skewness > 4   (internal) or 20  (boundary) : 0
    faces with interpolation weights (0..1)  < 0.02        : 0
    faces with volume ratio of neighbour cells < 0.01      : 0
    faces with face twist < 0.02                           : 44
    faces on cells with determinant < 0.001                : 0

Iteration 4
Moving mesh using displacement scaling : min:0.316406  max:1
Checking faces in error :
    non-orthogonality > 65  degrees                        : 2
    faces with face pyramid volume < 1e-13                 : 19
    faces with face-decomposition tet quality < 1e-15      : 272
    faces with concavity > 80  degrees                     : 3
    faces with skewness > 4   (internal) or 20  (boundary) : 0
    faces with interpolation weights (0..1)  < 0.02        : 0
    faces with volume ratio of neighbour cells < 0.01      : 0
    faces with face twist < 0.02                           : 49
    faces on cells with determinant < 0.001                : 0

Iteration 5
Displacement scaling for error reduction set to 0.
Moving mesh using displacement scaling : min:0.237305  max:1
Checking faces in error :
    non-orthogonality > 65  degrees                        : 2
    faces with face pyramid volume < 1e-13                 : 10
    faces with face-decomposition tet quality < 1e-15      : 233
    faces with concavity > 80  degrees                     : 2
    faces with skewness > 4   (internal) or 20  (boundary) : 0
    faces with interpolation weights (0..1)  < 0.02        : 0
    faces with volume ratio of neighbour cells < 0.01      : 0
    faces with face twist < 0.02                           : 46
    faces on cells with determinant < 0.001                : 0

Iteration 6
Moving mesh using displacement scaling : min:0  max:1
Checking faces in error :
    non-orthogonality > 65  degrees                        : 0
    faces with face pyramid volume < 1e-13                 : 0
    faces with face-decomposition tet quality < 1e-15      : 1
    faces with concavity > 80  degrees                     : 0
    faces with skewness > 4   (internal) or 20  (boundary) : 0
    faces with interpolation weights (0..1)  < 0.02        : 0
    faces with volume ratio of neighbour cells < 0.01      : 0
    faces with face twist < 0.02                           : 1
    faces on cells with determinant < 0.001                : 0

Iteration 7
Moving mesh using displacement scaling : min:0  max:1
Checking faces in error :
    non-orthogonality > 65  degrees                        : 0
    faces with face pyramid volume < 1e-13                 : 0
    faces with face-decomposition tet quality < 1e-15      : 0
    faces with concavity > 80  degrees                     : 0
    faces with skewness > 4   (internal) or 20  (boundary) : 0
    faces with interpolation weights (0..1)  < 0.02        : 0
    faces with volume ratio of neighbour cells < 0.01      : 0
    faces with face twist < 0.02                           : 0
    faces on cells with determinant < 0.001                : 0
Successfully moved mesh
Moved mesh in = 6.73 s



Morph iteration 7
-----------------
Calculating patchDisplacement as distance to nearest surface point ...
Wanted displacement : average:0.000499655 min:6.04394e-09 max:0.0178256
Calculated surface displacement in = 0.1 s


Detecting near surfaces ...
Overriding nearest with intersection of close gaps at 1468 out of 63646 points.
Overriding displacement on features :
   implicit features    : false
   explicit features    : true
   multi-patch features : false

Detected 2260 baffle edges out of 125482 edges.
Initially selected 22649 points out of 63646 for reverse attraction.
Selected 42534 points out of 63646 for reverse attraction.
Stringing feature edges : changed 1506 points
Stringing feature edges : changed 147 points
Stringing feature edges : changed 31 points
Stringing feature edges : changed 13 points
Stringing feature edges : changed 5 points
Stringing feature edges : changed 1 points
Stringing feature edges : changed 1 points
Stringing feature edges : changed 0 points
Attraction:
     linear   : max:(-0.018732 -0.00325676 0.00312856) avg:(-1.40378e-05 2.84961e-06 -6.74801e-06)
     feature  : max:(-0.0170001 0.0425589 -0.00286851) avg:(-3.30649e-06 1.37014e-05 -2.01229e-06)
Feature analysis : total master points:61703 attraction to :
    feature point   : 1176
    feature edge    : 11468
    nearest surface : 0
    rest            : 49059

--> FOAM Warning : Displacement (0.000132351 0.00017845 -0.000250588) at mesh point 3340 coord (0.754549 -0.254531 0.483845) points through the surrounding patch faces
Smoothing displacement ...
Iteration 0
Iteration 10
Iteration 20
Displacement smoothed in = 2.03 s


Moving mesh ...

Iteration 0
Moving mesh using displacement scaling : min:1  max:1
Checking faces in error :
    non-orthogonality > 65  degrees                        : 29
    faces with face pyramid volume < 1e-13                 : 154
    faces with face-decomposition tet quality < 1e-15      : 1022
    faces with concavity > 80  degrees                     : 19
    faces with skewness > 4   (internal) or 20  (boundary) : 0
    faces with interpolation weights (0..1)  < 0.02        : 0
    faces with volume ratio of neighbour cells < 0.01      : 0
    faces with face twist < 0.02                           : 64
    faces on cells with determinant < 0.001                : 0

Iteration 1
Moving mesh using displacement scaling : min:0.75  max:1
Checking faces in error :
    non-orthogonality > 65  degrees                        : 15
    faces with face pyramid volume < 1e-13                 : 102
    faces with face-decomposition tet quality < 1e-15      : 826
    faces with concavity > 80  degrees                     : 12
    faces with skewness > 4   (internal) or 20  (boundary) : 0
    faces with interpolation weights (0..1)  < 0.02        : 0
    faces with volume ratio of neighbour cells < 0.01      : 0
    faces with face twist < 0.02                           : 51
    faces on cells with determinant < 0.001                : 0

Iteration 2
Moving mesh using displacement scaling : min:0.5625  max:1
Checking faces in error :
    non-orthogonality > 65  degrees                        : 5
    faces with face pyramid volume < 1e-13                 : 65
    faces with face-decomposition tet quality < 1e-15      : 695
    faces with concavity > 80  degrees                     : 10
    faces with skewness > 4   (internal) or 20  (boundary) : 0
    faces with interpolation weights (0..1)  < 0.02        : 0
    faces with volume ratio of neighbour cells < 0.01      : 0
    faces with face twist < 0.02                           : 58
    faces on cells with determinant < 0.001                : 0

Iteration 3
Moving mesh using displacement scaling : min:0.421875  max:1
Checking faces in error :
    non-orthogonality > 65  degrees                        : 4
    faces with face pyramid volume < 1e-13                 : 47
    faces with face-decomposition tet quality < 1e-15      : 595
    faces with concavity > 80  degrees                     : 12
    faces with skewness > 4   (internal) or 20  (boundary) : 0
    faces with interpolation weights (0..1)  < 0.02        : 0
    faces with volume ratio of neighbour cells < 0.01      : 0
    faces with face twist < 0.02                           : 66
    faces on cells with determinant < 0.001                : 0

Iteration 4
Moving mesh using displacement scaling : min:0.316406  max:1
Checking faces in error :
    non-orthogonality > 65  degrees                        : 3
    faces with face pyramid volume < 1e-13                 : 29
    faces with face-decomposition tet quality < 1e-15      : 510
    faces with concavity > 80  degrees                     : 10
    faces with skewness > 4   (internal) or 20  (boundary) : 0
    faces with interpolation weights (0..1)  < 0.02        : 0
    faces with volume ratio of neighbour cells < 0.01      : 0
    faces with face twist < 0.02                           : 68
    faces on cells with determinant < 0.001                : 0

Iteration 5
Displacement scaling for error reduction set to 0.
Moving mesh using displacement scaling : min:0.237305  max:1
Checking faces in error :
    non-orthogonality > 65  degrees                        : 3
    faces with face pyramid volume < 1e-13                 : 22
    faces with face-decomposition tet quality < 1e-15      : 408
    faces with concavity > 80  degrees                     : 9
    faces with skewness > 4   (internal) or 20  (boundary) : 0
    faces with interpolation weights (0..1)  < 0.02        : 0
    faces with volume ratio of neighbour cells < 0.01      : 0
    faces with face twist < 0.02                           : 86
    faces on cells with determinant < 0.001                : 0

Iteration 6
Moving mesh using displacement scaling : min:0  max:1
Checking faces in error :
    non-orthogonality > 65  degrees                        : 0
    faces with face pyramid volume < 1e-13                 : 0
    faces with face-decomposition tet quality < 1e-15      : 0
    faces with concavity > 80  degrees                     : 0
    faces with skewness > 4   (internal) or 20  (boundary) : 0
    faces with interpolation weights (0..1)  < 0.02        : 0
    faces with volume ratio of neighbour cells < 0.01      : 0
    faces with face twist < 0.02                           : 3
    faces on cells with determinant < 0.001                : 0

Iteration 7
Moving mesh using displacement scaling : min:0  max:1
Checking faces in error :
    non-orthogonality > 65  degrees                        : 0
    faces with face pyramid volume < 1e-13                 : 0
    faces with face-decomposition tet quality < 1e-15      : 0
    faces with concavity > 80  degrees                     : 0
    faces with skewness > 4   (internal) or 20  (boundary) : 0
    faces with interpolation weights (0..1)  < 0.02        : 0
    faces with volume ratio of neighbour cells < 0.01      : 0
    faces with face twist < 0.02                           : 0
    faces on cells with determinant < 0.001                : 0
Successfully moved mesh
Moved mesh in = 7.55 s



Morph iteration 8
-----------------
Calculating patchDisplacement as distance to nearest surface point ...
Wanted displacement : average:0.000331612 min:1.48064e-09 max:0.0177518
Calculated surface displacement in = 0.1 s


Detecting near surfaces ...
Overriding nearest with intersection of close gaps at 1821 out of 63646 points.
Overriding displacement on features :
   implicit features    : false
   explicit features    : true
   multi-patch features : false

Detected 2593 baffle edges out of 125482 edges.
Initially selected 22724 points out of 63646 for reverse attraction.
Selected 42485 points out of 63646 for reverse attraction.
Stringing feature edges : changed 1377 points
Stringing feature edges : changed 144 points
Stringing feature edges : changed 56 points
Stringing feature edges : changed 28 points
Stringing feature edges : changed 10 points
Stringing feature edges : changed 9 points
Stringing feature edges : changed 3 points
Stringing feature edges : changed 4 points
Stringing feature edges : changed 1 points
Stringing feature edges : changed 1 points
Stringing feature edges : changed 2 points
Stringing feature edges : changed 2 points
Stringing feature edges : changed 2 points
Stringing feature edges : changed 0 points
Attraction:
     linear   : max:(0.0126134 0.0019592 0.0168779) avg:(-8.43274e-06 4.50147e-06 -7.56204e-06)
     feature  : max:(-0.0170946 0.0426604 -0.00263983) avg:(-4.83129e-06 1.2338e-05 -4.57453e-06)
Feature analysis : total master points:61703 attraction to :
    feature point   : 1128
    feature edge    : 11638
    nearest surface : 0
    rest            : 48937

--> FOAM Warning : Displacement (5.2878e-05 9.0877e-05 -0.000108103) at mesh point 3340 coord (0.754681 -0.254352 0.483594) points through the surrounding patch faces
Smoothing displacement ...
Iteration 0
Iteration 10
Iteration 20
Displacement smoothed in = 2.02 s


Moving mesh ...

Iteration 0
Moving mesh using displacement scaling : min:1  max:1
Checking faces in error :
    non-orthogonality > 65  degrees                        : 56
    faces with face pyramid volume < 1e-13                 : 252
    faces with face-decomposition tet quality < 1e-15      : 1470
    faces with concavity > 80  degrees                     : 38
    faces with skewness > 4   (internal) or 20  (boundary) : 0
    faces with interpolation weights (0..1)  < 0.02        : 0
    faces with volume ratio of neighbour cells < 0.01      : 0
    faces with face twist < 0.02                           : 73
    faces on cells with determinant < 0.001                : 0

Iteration 1
Moving mesh using displacement scaling : min:0.75  max:1
Checking faces in error :
    non-orthogonality > 65  degrees                        : 31
    faces with face pyramid volume < 1e-13                 : 168
    faces with face-decomposition tet quality < 1e-15      : 1190
    faces with concavity > 80  degrees                     : 32
    faces with skewness > 4   (internal) or 20  (boundary) : 0
    faces with interpolation weights (0..1)  < 0.02        : 0
    faces with volume ratio of neighbour cells < 0.01      : 0
    faces with face twist < 0.02                           : 73
    faces on cells with determinant < 0.001                : 0

Iteration 2
Moving mesh using displacement scaling : min:0.5625  max:1
Checking faces in error :
    non-orthogonality > 65  degrees                        : 14
    faces with face pyramid volume < 1e-13                 : 107
    faces with face-decomposition tet quality < 1e-15      : 1026
    faces with concavity > 80  degrees                     : 29
    faces with skewness > 4   (internal) or 20  (boundary) : 0
    faces with interpolation weights (0..1)  < 0.02        : 0
    faces with volume ratio of neighbour cells < 0.01      : 1
    faces with face twist < 0.02                           : 61
    faces on cells with determinant < 0.001                : 0

Iteration 3
Moving mesh using displacement scaling : min:0.421875  max:1
Checking faces in error :
[...]
displacementMedialAxis : Removing isolated regions ...
displacementMedialAxis : Number of isolated points extrusion stopped : 22
displacementMedialAxis : Smoothing field ...
    Iteration 0   residual 0.000103154
displacementMedialAxis : Moving mesh ...
displacementMedialAxis : Iteration 0
Moving mesh using displacement scaling : min:1  max:1
Checking faces in error :
    non-orthogonality > 65  degrees                        : 1
    faces with face pyramid volume < 1e-13                 : 0
    faces with face-decomposition tet quality < 1e-15      : 2
    faces with concavity > 80  degrees                     : 0
    faces with skewness > 4   (internal) or 20  (boundary) : 0
    faces with interpolation weights (0..1)  < 0.02        : 0
    faces with volume ratio of neighbour cells < 0.01      : 0
    faces with face twist < 0.02                           : 0
    faces on cells with determinant < 0.001                : 0
displacementMedialAxis : Iteration 1
Moving mesh using displacement scaling : min:0.75  max:1
Checking faces in error :
    non-orthogonality > 65  degrees                        : 0
    faces with face pyramid volume < 1e-13                 : 0
    faces with face-decomposition tet quality < 1e-15      : 0
    faces with concavity > 80  degrees                     : 0
    faces with skewness > 4   (internal) or 20  (boundary) : 0
    faces with interpolation weights (0..1)  < 0.02        : 0
    faces with volume ratio of neighbour cells < 0.01      : 0
    faces with face twist < 0.02                           : 0
    faces on cells with determinant < 0.001                : 0
displacementMedialAxis : Successfully moved mesh
displacementMedialAxis : Finished moving mesh ...
truncateDisplacement : Unextruded 0 faces due to non-consecutive vertices being extruded.
truncateDisplacement : Unextruded 0 faces due to stringed edges with inconsistent extrusion.

Setting up information for layer truncation ...

Checking mesh with layer ...
Checking faces in error :
    non-orthogonality > 65  degrees                        : 1
    faces with face pyramid volume < 1e-13                 : 0
    faces with face-decomposition tet quality < 1e-15      : 5
    faces with concavity > 80  degrees                     : 0
    faces with skewness > 4   (internal) or 20  (boundary) : 0
    faces with interpolation weights (0..1)  < 0.02        : 0
    faces with volume ratio of neighbour cells < 0.01      : 0
    faces with face twist < 0.02                           : 2
    faces on cells with determinant < 0.001                : 0
Detected 8 illegal faces (concave, zero area or negative cell pyramid volume)
Extruding 27784 out of 49403 faces (56.2395%). Removed extrusion at 8 faces.
Added 27793 out of 49403 cells (56.2577%).


Layer addition iteration 8
--------------------------

Determining displacement for added points according to pointNormal ...
Detected 0 points with point normal pointing through faces.
Reset displacement at 0 points to average of surrounding points.

displacementMedialAxis : Smoothing using Medial Axis ...
displacementMedialAxis : Reducing layer thickness at 138 nodes where thickness to medial axis distance is large 
displacementMedialAxis : Removing isolated regions ...
displacementMedialAxis : Number of isolated points extrusion stopped : 8
displacementMedialAxis : Smoothing field ...
    Iteration 0   residual 0.000103058
displacementMedialAxis : Moving mesh ...
displacementMedialAxis : Iteration 0
Moving mesh using displacement scaling : min:1  max:1
Checking faces in error :
    non-orthogonality > 65  degrees                        : 1
    faces with face pyramid volume < 1e-13                 : 0
    faces with face-decomposition tet quality < 1e-15      : 1
    faces with concavity > 80  degrees                     : 0
    faces with skewness > 4   (internal) or 20  (boundary) : 0
    faces with interpolation weights (0..1)  < 0.02        : 0
    faces with volume ratio of neighbour cells < 0.01      : 0
    faces with face twist < 0.02                           : 0
    faces on cells with determinant < 0.001                : 0
displacementMedialAxis : Iteration 1
Moving mesh using displacement scaling : min:0.75  max:1
Checking faces in error :
    non-orthogonality > 65  degrees                        : 0
    faces with face pyramid volume < 1e-13                 : 0
    faces with face-decomposition tet quality < 1e-15      : 0
    faces with concavity > 80  degrees                     : 0
    faces with skewness > 4   (internal) or 20  (boundary) : 0
    faces with interpolation weights (0..1)  < 0.02        : 0
    faces with volume ratio of neighbour cells < 0.01      : 0
    faces with face twist < 0.02                           : 0
    faces on cells with determinant < 0.001                : 0
displacementMedialAxis : Successfully moved mesh
displacementMedialAxis : Finished moving mesh ...
truncateDisplacement : Unextruded 0 faces due to non-consecutive vertices being extruded.
truncateDisplacement : Unextruded 0 faces due to stringed edges with inconsistent extrusion.

Setting up information for layer truncation ...

Checking mesh with layer ...
Checking faces in error :
    non-orthogonality > 65  degrees                        : 1
    faces with face pyramid volume < 1e-13                 : 0
    faces with face-decomposition tet quality < 1e-15      : 3
    faces with concavity > 80  degrees                     : 0
    faces with skewness > 4   (internal) or 20  (boundary) : 0
    faces with interpolation weights (0..1)  < 0.02        : 0
    faces with volume ratio of neighbour cells < 0.01      : 0
    faces with face twist < 0.02                           : 1
    faces on cells with determinant < 0.001                : 0
Detected 5 illegal faces (concave, zero area or negative cell pyramid volume)
Extruding 27766 out of 49403 faces (56.2031%). Removed extrusion at 5 faces.
Added 27773 out of 49403 cells (56.2172%).


Layer addition iteration 9
--------------------------

Determining displacement for added points according to pointNormal ...
Detected 0 points with point normal pointing through faces.
Reset displacement at 0 points to average of surrounding points.

displacementMedialAxis : Smoothing using Medial Axis ...
displacementMedialAxis : Reducing layer thickness at 138 nodes where thickness to medial axis distance is large 
displacementMedialAxis : Removing isolated regions ...
displacementMedialAxis : Number of isolated points extrusion stopped : 9
displacementMedialAxis : Smoothing field ...
    Iteration 0   residual 0.0001029
displacementMedialAxis : Moving mesh ...
displacementMedialAxis : Iteration 0
Moving mesh using displacement scaling : min:1  max:1
Checking faces in error :
    non-orthogonality > 65  degrees                        : 1
    faces with face pyramid volume < 1e-13                 : 0
    faces with face-decomposition tet quality < 1e-15      : 1
    faces with concavity > 80  degrees                     : 0
    faces with skewness > 4   (internal) or 20  (boundary) : 0
    faces with interpolation weights (0..1)  < 0.02        : 0
    faces with volume ratio of neighbour cells < 0.01      : 0
    faces with face twist < 0.02                           : 0
    faces on cells with determinant < 0.001                : 0
displacementMedialAxis : Iteration 1
Moving mesh using displacement scaling : min:0.75  max:1
Checking faces in error :
    non-orthogonality > 65  degrees                        : 0
    faces with face pyramid volume < 1e-13                 : 0
    faces with face-decomposition tet quality < 1e-15      : 0
    faces with concavity > 80  degrees                     : 0
    faces with skewness > 4   (internal) or 20  (boundary) : 0
    faces with interpolation weights (0..1)  < 0.02        : 0
    faces with volume ratio of neighbour cells < 0.01      : 0
    faces with face twist < 0.02                           : 0
    faces on cells with determinant < 0.001                : 0
displacementMedialAxis : Successfully moved mesh
displacementMedialAxis : Finished moving mesh ...
truncateDisplacement : Unextruded 0 faces due to non-consecutive vertices being extruded.
truncateDisplacement : Unextruded 0 faces due to stringed edges with inconsistent extrusion.

Setting up information for layer truncation ...

Checking mesh with layer ...
Checking faces in error :
    non-orthogonality > 65  degrees                        : 0
    faces with face pyramid volume < 1e-13                 : 0
    faces with face-decomposition tet quality < 1e-15      : 0
    faces with concavity > 80  degrees                     : 0
    faces with skewness > 4   (internal) or 20  (boundary) : 0
    faces with interpolation weights (0..1)  < 0.02        : 0
    faces with volume ratio of neighbour cells < 0.01      : 0
    faces with face twist < 0.02                           : 1
    faces on cells with determinant < 0.001                : 0
Detected 1 illegal faces (concave, zero area or negative cell pyramid volume)
Extruding 27749 out of 49403 faces (56.1687%). Removed extrusion at 1 faces.
Added 27750 out of 49403 cells (56.1707%).


Layer addition iteration 10
--------------------------

Determining displacement for added points according to pointNormal ...
Detected 0 points with point normal pointing through faces.
Reset displacement at 0 points to average of surrounding points.

displacementMedialAxis : Smoothing using Medial Axis ...
displacementMedialAxis : Reducing layer thickness at 138 nodes where thickness to medial axis distance is large 
displacementMedialAxis : Removing isolated regions ...
displacementMedialAxis : Number of isolated points extrusion stopped : 0
displacementMedialAxis : Smoothing field ...
    Iteration 0   residual 0.000102901
displacementMedialAxis : Moving mesh ...
displacementMedialAxis : Iteration 0
Moving mesh using displacement scaling : min:1  max:1
Checking faces in error :
    non-orthogonality > 65  degrees                        : 1
    faces with face pyramid volume < 1e-13                 : 0
    faces with face-decomposition tet quality < 1e-15      : 1
    faces with concavity > 80  degrees                     : 0
    faces with skewness > 4   (internal) or 20  (boundary) : 0
    faces with interpolation weights (0..1)  < 0.02        : 0
    faces with volume ratio of neighbour cells < 0.01      : 0
    faces with face twist < 0.02                           : 0
    faces on cells with determinant < 0.001                : 0
displacementMedialAxis : Iteration 1
Moving mesh using displacement scaling : min:0.75  max:1
Checking faces in error :
    non-orthogonality > 65  degrees                        : 0
    faces with face pyramid volume < 1e-13                 : 0
    faces with face-decomposition tet quality < 1e-15      : 0
    faces with concavity > 80  degrees                     : 0
    faces with skewness > 4   (internal) or 20  (boundary) : 0
    faces with interpolation weights (0..1)  < 0.02        : 0
    faces with volume ratio of neighbour cells < 0.01      : 0
    faces with face twist < 0.02                           : 0
    faces on cells with determinant < 0.001                : 0
displacementMedialAxis : Successfully moved mesh
displacementMedialAxis : Finished moving mesh ...
truncateDisplacement : Unextruded 0 faces due to non-consecutive vertices being extruded.
truncateDisplacement : Unextruded 0 faces due to stringed edges with inconsistent extrusion.

Setting up information for layer truncation ...

Checking mesh with layer ...
Checking faces in error :
    non-orthogonality > 65  degrees                        : 0
    faces with face pyramid volume < 1e-13                 : 0
    faces with face-decomposition tet quality < 1e-15      : 0
    faces with concavity > 80  degrees                     : 0
    faces with skewness > 4   (internal) or 20  (boundary) : 0
    faces with interpolation weights (0..1)  < 0.02        : 0
    faces with volume ratio of neighbour cells < 0.01      : 0
    faces with face twist < 0.02                           : 0
    faces on cells with determinant < 0.001                : 0
Detected 0 illegal faces (concave, zero area or negative cell pyramid volume)
Extruding 27749 out of 49403 faces (56.1687%). Removed extrusion at 0 faces.
Added 27749 out of 49403 cells (56.1687%).
Edge intersection testing:
    Number of edges             : 1104751
    Number of edges to retest   : 0
    Number of intersected edges : 64661

Doing final balancing
---------------------

Writing 27749 added cells to cellSet addedCells
Writing 0 faces inside added layer to faceSet layerFaces

Writing fields with layer information:
    nSurfaceLayers    : actual number of layers
    thickness         : overall layer thickness
    thicknessFraction : overall layer thickness (fraction of desired thickness)


patch                                            faces    layers   overall thickness
                                                                   [m]       [%]
-----                                            -----    ------   ---       ---
lowerWall                                        5349     0.987    0.0244    92.7    
motorBike_frt-fairing:001%1                      5385     0.379    0.001     21.4    
motorBike_windshield:002%2                       50       0.94     0.00378   80.7    
motorBike_rr-wh-rim:005%5                        131      0.45     0.000795  17.1    
motorBike_rr-wh-rim:010%10                       354      0.167    0.000232  5.17    
motorBike_fr-wh-rim:011%11                       505      0.244    0.000241  5.18    
motorBike_fr-wh-brake-disk:012%12                46       0        0         0       
motorBike_frame:016-shadow%13                    103      0.0194   9.22e-06  0.197   
motorBike_rear-susp:014%14                       821      0.3      0.000426  9.12    
motorBike_rear-susp:014-shadow%15                459      0.305    0.000378  8.1     
motorBike_frame:016%16                           62       0        0         0       
motorBike_rr-wh-rim:005-shadow%17                56       0.446    0.000851  18.1    
motorBike_rr-wh-chain-hub:022%22                 126      0        0         0       
motorBike_rearseat%24                            421      0.689    0.0022    46.6    
motorBike_frt-fairing%25                         619      0.687    0.00179   38.3    
motorBike_windshield%26                          386      0.168    0.00029   6.2     
motorBike_headlights%27                          154      0.968    0.00369   78.7    
motorBike_driversseat%28                         358      0.218    0.000327  7.22    
motorBike_rear-body%29                           2041     0.62     0.00165   35.2    
motorBike_fuel-tank%30                           881      0.823    0.00283   61.1    
motorBike_exhaust%31                             2340     0.379    0.00169   36      
motorBike_rr-wh-rim%32                           1377     0.688    0.00171   36.8    
motorBike_fr-mud-guard%33                        614      0.269    0.000504  10.8    
motorBike_fr-wh-rim%34                           576      0.361    0.000563  12.1    
motorBike_fr-wh-brake-disk%35                    436      0.326    0.000327  7.16    
motorBike_fr-brake-caliper%36                    159      0        0         0       
motorBike_fr-wh-tyre%37                          1098     0.569    0.00185   39.5    
motorBike_hbars%38                               522      0        0         0       
motorBike_fr-forks%39                            1091     0.442    0.00156   33.3    
motorBike_chain%40                               459      0.0588   4.97e-05  1.19    
motorBike_rr-wh-tyre%41                          1842     0.792    0.00291   62.1    
motorBike_square-dial%42                         6        1        0.0015    32      
motorBike_round-dial%43                          15       0        0         0       
motorBike_dial-holder%44                         85       0.141    9.58e-05  2.08    
motorBike_rear-susp%45                           1726     0.404    0.000585  12.6    
motorBike_rear-brake-lights%46                   54       0        0         0       
motorBike_rear-light-bracket%47                  157      0.452    0.000656  14      
motorBike_frame%48                               2013     0.525    0.00106   22.8    
motorBike_rear-mud-guard%49                      650      0.349    0.000644  13.7    
motorBike_rear-susp-spring-damp%50               83       0        0         0       
motorBike_fairing-inner-plate%51                 439      0.581    0.00163   34.8    
motorBike_clutch-housing%52                      925      0.654    0.00143   30.5    
motorBike_radiator%53                            51       0        0         0       
motorBike_water-pipe%54                          94       0        0         0       
motorBike_water-pump%55                          72       0        0         0       
motorBike_engine%56                              2307     0.736    0.00159   34.1    
motorBike_rear-shock-link%57                     22       0        0         0       
motorBike_rear-brake-fluid-pot-bracket%58        44       0.318    0.000287  6.13    
motorBike_rear-brake-fluid-pot%59                53       0        0         0       
motorBike_footpeg%60                             89       0        0         0       
motorBike_rr-wh-chain-hub%61                     124      0.194    0.000209  4.65    
motorBike_rear-brake-caliper%62                  145      0.0828   7.8e-05   1.66    
motorBike_rider-helmet%65                        759      0.946    0.00376   80.3    
motorBike_rider-visor%66                         165      1        0.00446   95.2    
motorBike_rider-boots%67                         1004     0.825    0.00273   58.2    
motorBike_rider-gloves%68                        309      0.159    0.00022   4.7     
motorBike_rider-body%69                          4556     0.859    0.00327   66.8    
motorBike_frame:0%70                             37       0.0541   3.24e-05  0.692   
motorBike_frt-fairing:001-shadow%74              3207     0.345    0.000928  19.9    
motorBike_windshield-shadow%75                   247      0.0931   0.000182  3.88    
motorBike_fr-mud-guard-shadow%81                 380      0.268    0.000547  11.7    
motorBike_fr-wh-brake-disk-shadow%83             197      0.34     0.000328  7.44    
motorBike_rear-mud-guard-shadow%84               396      0.303    0.000589  12.6    
motorBike_rear-susp-spring-damp-shadow%85        46       0        0         0       
motorBike_radiator-shadow%86                     21       0        0         0       
motorBike_rear-shock-link-shadow%87              15       0        0         0       
motorBike_rear-brake-fluid-pot-bracket-shadow%88 20       0.2      0.000242  5.16    
motorBike_rr-wh-chain-hub-shadow%89              69       0.159    0.000147  3.18    

Layer mesh : cells:352499  faces:1104751  points:405147
Cells per refinement level:
    0	1018
    1	1867
    2	5356
    3	9824
    4	134898
    5	23832
    6	175704
Writing mesh to time constant
Wrote mesh in = 69.05 s.
Layers added in = 69.05 s.
Checking final mesh ...
Checking faces in error :
    non-orthogonality > 65  degrees                        : 0
    faces with face pyramid volume < 1e-13                 : 0
    faces with face-decomposition tet quality < 1e-15      : 0
    faces with concavity > 80  degrees                     : 0
    faces with skewness > 4   (internal) or 20  (boundary) : 0
    faces with interpolation weights (0..1)  < 0.02        : 0
    faces with volume ratio of neighbour cells < 0.01      : 0
    faces with face twist < 0.02                           : 0
    faces on cells with determinant < 0.001                : 0
Finished meshing without any errors
Finished meshing in = 224.37 s.
End

Finalising parallel run
