/*---------------------------------------------------------------------------*\
  =========                 |
  \\      /  F ield         | OpenFOAM: The Open Source CFD Toolbox
   \\    /   O peration     | Website:  https://openfoam.org
    \\  /    A nd           | Version:  9
     \\/     M anipulation  |
\*---------------------------------------------------------------------------*/
Build  : 9-b456138dc4bc
Exec   : buoyantPimpleFoam
Date   : Nov 24 2021
Time   : 14:35:40
Host   : "tw-Satellite-C45t-A"
PID    : 25068
I/O    : uncollated
Case   : /home/tw/OpenFOAM/tw-9/run/curso-cfd/buoyantPimpleFoam/hotRoom
nProcs : 1
sigFpe : Enabling floating point exception trapping (FOAM_SIGFPE).
fileModificationChecking : Monitoring run-time modified files using timeStampMaster (fileModificationSkew 10)
allowSystemOperations : Allowing user-supplied system call operations

// * * * * * * * * * * * * * * * * * * * * * * * * * * * * * * * * * * * * * //
Create time

Create mesh for time = 0


PIMPLE: No convergence criteria found


PIMPLE: Operating solver in transient mode with 1 outer corrector
PIMPLE: Operating solver in PISO mode


Reading thermophysical properties

Selecting thermodynamics package 
{
    type            heRhoThermo;
    mixture         pureMixture;
    transport       const;
    thermo          hConst;
    equationOfState perfectGas;
    specie          specie;
    energy          sensibleEnthalpy;
}

Reading field U

Reading/calculating face flux field phi

Creating turbulence model

Selecting turbulence model type RAS
Selecting RAS turbulence model kEpsilon
RAS
{
    model           kEpsilon;
    turbulence      on;
    printCoeffs     on;
    Cmu             0.09;
    C1              1.44;
    C2              1.92;
    C3              0;
    sigmak          1;
    sigmaEps        1.3;
}

Creating thermophysical transport model

Selecting thermophysical transport type RAS
Selecting default RAS thermophysical transport model unityLewisEddyDiffusivity

Reading g

Reading hRef
Calculating field g.h


Reading pRef
Reading field p_rgh

Creating field dpdt

Creating field kinetic energy K

No MRF models present

No fvModels present
No fvConstraints present
Courant Number mean: 0 max: 0

Starting time loop

Courant Number mean: 0 max: 0
Time = 2

diagonal:  Solving for rho, Initial residual = 0, Final residual = 0, No Iterations 0
DILUPBiCGStab:  Solving for Ux, Initial residual = 0, Final residual = 0, No Iterations 0
DILUPBiCGStab:  Solving for Uy, Initial residual = 1, Final residual = 6.37852e-07, No Iterations 4
DILUPBiCGStab:  Solving for Uz, Initial residual = 0, Final residual = 0, No Iterations 0
DILUPBiCGStab:  Solving for h, Initial residual = 1, Final residual = 2.28526e-08, No Iterations 1
DICPCG:  Solving for p_rgh, Initial residual = 0.970313, Final residual = 0.00725993, No Iterations 8
diagonal:  Solving for rho, Initial residual = 0, Final residual = 0, No Iterations 0
time step continuity errors : sum local = 0.116043, global = 0.00115925, cumulative = 0.00115925
DICPCG:  Solving for p_rgh, Initial residual = 0.809333, Final residual = 6.32438e-09, No Iterations 52
diagonal:  Solving for rho, Initial residual = 0, Final residual = 0, No Iterations 0
time step continuity errors : sum local = 2.35814e-07, global = -1.3444e-07, cumulative = 0.00115912
DILUPBiCGStab:  Solving for epsilon, Initial residual = 0.143714, Final residual = 5.25465e-07, No Iterations 4
DILUPBiCGStab:  Solving for k, Initial residual = 1, Final residual = 2.97502e-07, No Iterations 5
ExecutionTime = 0.1 s  ClockTime = 1 s

Courant Number mean: 2.67431 max: 11.3185
Time = 4

diagonal:  Solving for rho, Initial residual = 0, Final residual = 0, No Iterations 0
DILUPBiCGStab:  Solving for Ux, Initial residual = 0.501422, Final residual = 3.46436e-07, No Iterations 6
DILUPBiCGStab:  Solving for Uy, Initial residual = 0.669855, Final residual = 6.99712e-07, No Iterations 5
DILUPBiCGStab:  Solving for Uz, Initial residual = 0.501422, Final residual = 3.46436e-07, No Iterations 6
DILUPBiCGStab:  Solving for h, Initial residual = 0.468764, Final residual = 6.6107e-07, No Iterations 5
DICPCG:  Solving for p_rgh, Initial residual = 0.956871, Final residual = 0.00378917, No Iterations 12
diagonal:  Solving for rho, Initial residual = 0, Final residual = 0, No Iterations 0
time step continuity errors : sum local = 0.0220234, global = 0.000175175, cumulative = 0.00133429
DICPCG:  Solving for p_rgh, Initial residual = 0.67686, Final residual = 6.61062e-09, No Iterations 51
diagonal:  Solving for rho, Initial residual = 0, Final residual = 0, No Iterations 0
time step continuity errors : sum local = 4.08792e-08, global = 1.80977e-08, cumulative = 0.00133431
DILUPBiCGStab:  Solving for epsilon, Initial residual = 0.0735057, Final residual = 1.822e-07, No Iterations 3
DILUPBiCGStab:  Solving for k, Initial residual = 0.288227, Final residual = 7.99374e-07, No Iterations 4
ExecutionTime = 0.15 s  ClockTime = 1 s

Courant Number mean: 2.33487 max: 9.6074
Time = 6

diagonal:  Solving for rho, Initial residual = 0, Final residual = 0, No Iterations 0
DILUPBiCGStab:  Solving for Ux, Initial residual = 0.250036, Final residual = 2.04818e-07, No Iterations 5
DILUPBiCGStab:  Solving for Uy, Initial residual = 0.603283, Final residual = 2.39882e-07, No Iterations 5
DILUPBiCGStab:  Solving for Uz, Initial residual = 0.250036, Final residual = 2.04818e-07, No Iterations 5
DILUPBiCGStab:  Solving for h, Initial residual = 0.325938, Final residual = 5.78358e-07, No Iterations 5
DICPCG:  Solving for p_rgh, Initial residual = 0.953375, Final residual = 0.00651295, No Iterations 9
diagonal:  Solving for rho, Initial residual = 0, Final residual = 0, No Iterations 0
time step continuity errors : sum local = 0.0148923, global = 0.000104705, cumulative = 0.00143901
DICPCG:  Solving for p_rgh, Initial residual = 0.693064, Final residual = 9.55011e-09, No Iterations 53
diagonal:  Solving for rho, Initial residual = 0, Final residual = 0, No Iterations 0
time step continuity errors : sum local = 1.71748e-08, global = -3.90171e-09, cumulative = 0.00143901
DILUPBiCGStab:  Solving for epsilon, Initial residual = 0.191046, Final residual = 3.15062e-07, No Iterations 3
DILUPBiCGStab:  Solving for k, Initial residual = 0.353444, Final residual = 5.83189e-07, No Iterations 4
ExecutionTime = 0.2 s  ClockTime = 1 s

Courant Number mean: 1.93182 max: 4.63435
Time = 8

diagonal:  Solving for rho, Initial residual = 0, Final residual = 0, No Iterations 0
DILUPBiCGStab:  Solving for Ux, Initial residual = 0.257282, Final residual = 8.82709e-07, No Iterations 5
DILUPBiCGStab:  Solving for Uy, Initial residual = 0.403853, Final residual = 7.02773e-07, No Iterations 5
DILUPBiCGStab:  Solving for Uz, Initial residual = 0.257282, Final residual = 8.82709e-07, No Iterations 5
DILUPBiCGStab:  Solving for h, Initial residual = 0.182184, Final residual = 4.71459e-07, No Iterations 4
DICPCG:  Solving for p_rgh, Initial residual = 0.899007, Final residual = 0.00504537, No Iterations 13
diagonal:  Solving for rho, Initial residual = 0, Final residual = 0, No Iterations 0
time step continuity errors : sum local = 0.00366923, global = 2.81478e-05, cumulative = 0.00146716
DICPCG:  Solving for p_rgh, Initial residual = 0.665549, Final residual = 4.03001e-09, No Iterations 55
diagonal:  Solving for rho, Initial residual = 0, Final residual = 0, No Iterations 0
time step continuity errors : sum local = 2.55745e-09, global = 7.90334e-10, cumulative = 0.00146716
DILUPBiCGStab:  Solving for epsilon, Initial residual = 0.21605, Final residual = 2.3018e-07, No Iterations 3
DILUPBiCGStab:  Solving for k, Initial residual = 0.346859, Final residual = 7.61416e-07, No Iterations 4
ExecutionTime = 0.24 s  ClockTime = 1 s

Courant Number mean: 1.65077 max: 3.60245
Time = 10

diagonal:  Solving for rho, Initial residual = 0, Final residual = 0, No Iterations 0
DILUPBiCGStab:  Solving for Ux, Initial residual = 0.0890181, Final residual = 1.65397e-07, No Iterations 5
DILUPBiCGStab:  Solving for Uy, Initial residual = 0.162046, Final residual = 4.813e-07, No Iterations 4
DILUPBiCGStab:  Solving for Uz, Initial residual = 0.0890181, Final residual = 1.65397e-07, No Iterations 5
DILUPBiCGStab:  Solving for h, Initial residual = 0.119016, Final residual = 6.81128e-07, No Iterations 4
DICPCG:  Solving for p_rgh, Initial residual = 0.636338, Final residual = 0.00304534, No Iterations 13
diagonal:  Solving for rho, Initial residual = 0, Final residual = 0, No Iterations 0
time step continuity errors : sum local = 0.000660264, global = 1.60603e-05, cumulative = 0.00148322
DICPCG:  Solving for p_rgh, Initial residual = 0.428232, Final residual = 4.99656e-09, No Iterations 55
diagonal:  Solving for rho, Initial residual = 0, Final residual = 0, No Iterations 0
time step continuity errors : sum local = 8.76481e-10, global = -4.10875e-11, cumulative = 0.00148322
DILUPBiCGStab:  Solving for epsilon, Initial residual = 0.220875, Final residual = 1.99088e-07, No Iterations 3
DILUPBiCGStab:  Solving for k, Initial residual = 0.304483, Final residual = 4.59245e-07, No Iterations 4
ExecutionTime = 0.29 s  ClockTime = 1 s

Courant Number mean: 1.51406 max: 3.40121
Time = 12

diagonal:  Solving for rho, Initial residual = 0, Final residual = 0, No Iterations 0
DILUPBiCGStab:  Solving for Ux, Initial residual = 0.0577376, Final residual = 2.93754e-08, No Iterations 5
DILUPBiCGStab:  Solving for Uy, Initial residual = 0.0804491, Final residual = 3.14771e-07, No Iterations 4
DILUPBiCGStab:  Solving for Uz, Initial residual = 0.0577376, Final residual = 2.93754e-08, No Iterations 5
DILUPBiCGStab:  Solving for h, Initial residual = 0.0958642, Final residual = 4.60524e-07, No Iterations 4
DICPCG:  Solving for p_rgh, Initial residual = 0.321588, Final residual = 0.00195319, No Iterations 13
diagonal:  Solving for rho, Initial residual = 0, Final residual = 0, No Iterations 0
time step continuity errors : sum local = 0.000267515, global = 1.02793e-05, cumulative = 0.0014935
DICPCG:  Solving for p_rgh, Initial residual = 0.173572, Final residual = 9.02172e-09, No Iterations 53
diagonal:  Solving for rho, Initial residual = 0, Final residual = 0, No Iterations 0
time step continuity errors : sum local = 1.09088e-09, global = 3.33077e-11, cumulative = 0.0014935
DILUPBiCGStab:  Solving for epsilon, Initial residual = 0.211169, Final residual = 1.46019e-07, No Iterations 3
DILUPBiCGStab:  Solving for k, Initial residual = 0.260634, Final residual = 2.60589e-07, No Iterations 4
ExecutionTime = 0.34 s  ClockTime = 1 s

Courant Number mean: 1.37982 max: 3.02458
Time = 14

diagonal:  Solving for rho, Initial residual = 0, Final residual = 0, No Iterations 0
DILUPBiCGStab:  Solving for Ux, Initial residual = 0.05097, Final residual = 4.0952e-07, No Iterations 4
DILUPBiCGStab:  Solving for Uy, Initial residual = 0.0607657, Final residual = 5.41497e-07, No Iterations 4
DILUPBiCGStab:  Solving for Uz, Initial residual = 0.05097, Final residual = 4.0952e-07, No Iterations 4
DILUPBiCGStab:  Solving for h, Initial residual = 0.0757342, Final residual = 2.34336e-07, No Iterations 4
DICPCG:  Solving for p_rgh, Initial residual = 0.25335, Final residual = 0.00229519, No Iterations 9
diagonal:  Solving for rho, Initial residual = 0, Final residual = 0, No Iterations 0
time step continuity errors : sum local = 0.000257812, global = 8.42428e-06, cumulative = 0.00150192
DICPCG:  Solving for p_rgh, Initial residual = 0.157456, Final residual = 4.57875e-09, No Iterations 54
diagonal:  Solving for rho, Initial residual = 0, Final residual = 0, No Iterations 0
time step continuity errors : sum local = 4.5757e-10, global = 1.56551e-11, cumulative = 0.00150192
DILUPBiCGStab:  Solving for epsilon, Initial residual = 0.194611, Final residual = 1.00824e-07, No Iterations 3
DILUPBiCGStab:  Solving for k, Initial residual = 0.228913, Final residual = 1.53056e-07, No Iterations 4
ExecutionTime = 0.39 s  ClockTime = 1 s

Courant Number mean: 1.27064 max: 2.73356
Time = 16

diagonal:  Solving for rho, Initial residual = 0, Final residual = 0, No Iterations 0
DILUPBiCGStab:  Solving for Ux, Initial residual = 0.0454478, Final residual = 9.02737e-07, No Iterations 3
DILUPBiCGStab:  Solving for Uy, Initial residual = 0.0523052, Final residual = 3.14884e-07, No Iterations 4
DILUPBiCGStab:  Solving for Uz, Initial residual = 0.0454478, Final residual = 9.02737e-07, No Iterations 3
DILUPBiCGStab:  Solving for h, Initial residual = 0.0606535, Final residual = 9.57192e-07, No Iterations 3
DICPCG:  Solving for p_rgh, Initial residual = 0.198126, Final residual = 0.000864792, No Iterations 10
diagonal:  Solving for rho, Initial residual = 0, Final residual = 0, No Iterations 0
time step continuity errors : sum local = 8.65422e-05, global = 7.51348e-06, cumulative = 0.00150944
DICPCG:  Solving for p_rgh, Initial residual = 0.119753, Final residual = 8.9385e-09, No Iterations 53
diagonal:  Solving for rho, Initial residual = 0, Final residual = 0, No Iterations 0
time step continuity errors : sum local = 8.13496e-10, global = 1.02597e-11, cumulative = 0.00150944
DILUPBiCGStab:  Solving for epsilon, Initial residual = 0.175752, Final residual = 8.76832e-07, No Iterations 3
DILUPBiCGStab:  Solving for k, Initial residual = 0.206641, Final residual = 8.99818e-07, No Iterations 3
ExecutionTime = 0.44 s  ClockTime = 1 s

Courant Number mean: 1.1765 max: 2.46667
Time = 18

diagonal:  Solving for rho, Initial residual = 0, Final residual = 0, No Iterations 0
DILUPBiCGStab:  Solving for Ux, Initial residual = 0.0423739, Final residual = 4.65628e-07, No Iterations 3
DILUPBiCGStab:  Solving for Uy, Initial residual = 0.0454246, Final residual = 7.21746e-07, No Iterations 3
DILUPBiCGStab:  Solving for Uz, Initial residual = 0.0423739, Final residual = 4.65628e-07, No Iterations 3
DILUPBiCGStab:  Solving for h, Initial residual = 0.0493198, Final residual = 5.20909e-07, No Iterations 3
DICPCG:  Solving for p_rgh, Initial residual = 0.177033, Final residual = 0.00154198, No Iterations 9
diagonal:  Solving for rho, Initial residual = 0, Final residual = 0, No Iterations 0
time step continuity errors : sum local = 0.000139435, global = 6.91519e-06, cumulative = 0.00151635
DICPCG:  Solving for p_rgh, Initial residual = 0.105603, Final residual = 7.90562e-09, No Iterations 53
diagonal:  Solving for rho, Initial residual = 0, Final residual = 0, No Iterations 0
time step continuity errors : sum local = 6.56385e-10, global = 6.73526e-12, cumulative = 0.00151635
DILUPBiCGStab:  Solving for epsilon, Initial residual = 0.15836, Final residual = 5.90628e-07, No Iterations 3
DILUPBiCGStab:  Solving for k, Initial residual = 0.189803, Final residual = 3.64043e-07, No Iterations 3
ExecutionTime = 0.49 s  ClockTime = 1 s

Courant Number mean: 1.09428 max: 2.23606
Time = 20

diagonal:  Solving for rho, Initial residual = 0, Final residual = 0, No Iterations 0
DILUPBiCGStab:  Solving for Ux, Initial residual = 0.0394478, Final residual = 2.62263e-07, No Iterations 3
DILUPBiCGStab:  Solving for Uy, Initial residual = 0.0403362, Final residual = 4.94086e-07, No Iterations 3
DILUPBiCGStab:  Solving for Uz, Initial residual = 0.0394478, Final residual = 2.62263e-07, No Iterations 3
DILUPBiCGStab:  Solving for h, Initial residual = 0.041695, Final residual = 2.96737e-07, No Iterations 3
DICPCG:  Solving for p_rgh, Initial residual = 0.154653, Final residual = 0.00101803, No Iterations 10
diagonal:  Solving for rho, Initial residual = 0, Final residual = 0, No Iterations 0
time step continuity errors : sum local = 8.43719e-05, global = 6.41531e-06, cumulative = 0.00152277
DICPCG:  Solving for p_rgh, Initial residual = 0.0905372, Final residual = 7.52753e-09, No Iterations 53
diagonal:  Solving for rho, Initial residual = 0, Final residual = 0, No Iterations 0
time step continuity errors : sum local = 5.79283e-10, global = 4.51667e-12, cumulative = 0.00152277
DILUPBiCGStab:  Solving for epsilon, Initial residual = 0.143736, Final residual = 3.9141e-07, No Iterations 3
DILUPBiCGStab:  Solving for k, Initial residual = 0.176464, Final residual = 1.80839e-07, No Iterations 3
ExecutionTime = 0.53 s  ClockTime = 1 s

Courant Number mean: 1.02186 max: 2.0366
Time = 22

diagonal:  Solving for rho, Initial residual = 0, Final residual = 0, No Iterations 0
DILUPBiCGStab:  Solving for Ux, Initial residual = 0.0369843, Final residual = 1.55753e-07, No Iterations 3
DILUPBiCGStab:  Solving for Uy, Initial residual = 0.0365532, Final residual = 2.33674e-07, No Iterations 3
DILUPBiCGStab:  Solving for Uz, Initial residual = 0.0369843, Final residual = 1.55753e-07, No Iterations 3
DILUPBiCGStab:  Solving for h, Initial residual = 0.0366149, Final residual = 1.81145e-07, No Iterations 3
DICPCG:  Solving for p_rgh, Initial residual = 0.137023, Final residual = 0.00117534, No Iterations 9
diagonal:  Solving for rho, Initial residual = 0, Final residual = 0, No Iterations 0
time step continuity errors : sum local = 9.02956e-05, global = 5.94472e-06, cumulative = 0.00152871
DICPCG:  Solving for p_rgh, Initial residual = 0.0785983, Final residual = 6.61445e-09, No Iterations 53
diagonal:  Solving for rho, Initial residual = 0, Final residual = 0, No Iterations 0
time step continuity errors : sum local = 4.76149e-10, global = 3.12464e-12, cumulative = 0.00152871
DILUPBiCGStab:  Solving for epsilon, Initial residual = 0.131995, Final residual = 2.63959e-07, No Iterations 3
DILUPBiCGStab:  Solving for k, Initial residual = 0.165545, Final residual = 1.18077e-07, No Iterations 3
ExecutionTime = 0.58 s  ClockTime = 1 s

Courant Number mean: 0.957771 max: 1.86563
Time = 24

diagonal:  Solving for rho, Initial residual = 0, Final residual = 0, No Iterations 0
DILUPBiCGStab:  Solving for Ux, Initial residual = 0.0347399, Final residual = 9.77502e-08, No Iterations 3
DILUPBiCGStab:  Solving for Uy, Initial residual = 0.0335963, Final residual = 1.43209e-07, No Iterations 3
DILUPBiCGStab:  Solving for Uz, Initial residual = 0.0347399, Final residual = 9.77502e-08, No Iterations 3
DILUPBiCGStab:  Solving for h, Initial residual = 0.0336795, Final residual = 1.29703e-07, No Iterations 3
DICPCG:  Solving for p_rgh, Initial residual = 0.12204, Final residual = 0.000814561, No Iterations 13
diagonal:  Solving for rho, Initial residual = 0, Final residual = 0, No Iterations 0
time step continuity errors : sum local = 5.86357e-05, global = 5.48685e-06, cumulative = 0.0015342
DICPCG:  Solving for p_rgh, Initial residual = 0.0678882, Final residual = 7.93543e-09, No Iterations 57
diagonal:  Solving for rho, Initial residual = 0, Final residual = 0, No Iterations 0
time step continuity errors : sum local = 5.40446e-10, global = 2.29802e-12, cumulative = 0.0015342
DILUPBiCGStab:  Solving for epsilon, Initial residual = 0.122686, Final residual = 1.83398e-07, No Iterations 3
DILUPBiCGStab:  Solving for k, Initial residual = 0.156329, Final residual = 7.62603e-07, No Iterations 3
ExecutionTime = 0.62 s  ClockTime = 1 s

Courant Number mean: 0.900887 max: 1.72029
Time = 26

diagonal:  Solving for rho, Initial residual = 0, Final residual = 0, No Iterations 0
DILUPBiCGStab:  Solving for Ux, Initial residual = 0.0327187, Final residual = 7.50587e-07, No Iterations 3
DILUPBiCGStab:  Solving for Uy, Initial residual = 0.03118, Final residual = 9.15318e-08, No Iterations 3
DILUPBiCGStab:  Solving for Uz, Initial residual = 0.0327187, Final residual = 7.50587e-07, No Iterations 3
DILUPBiCGStab:  Solving for h, Initial residual = 0.0327303, Final residual = 1.17375e-07, No Iterations 3
DICPCG:  Solving for p_rgh, Initial residual = 0.109086, Final residual = 0.0006411, No Iterations 9
diagonal:  Solving for rho, Initial residual = 0, Final residual = 0, No Iterations 0
time step continuity errors : sum local = 4.37289e-05, global = 5.0362e-06, cumulative = 0.00153923
DICPCG:  Solving for p_rgh, Initial residual = 0.0586099, Final residual = 5.61291e-09, No Iterations 53
diagonal:  Solving for rho, Initial residual = 0, Final residual = 0, No Iterations 0
time step continuity errors : sum local = 3.64871e-10, global = 1.4722e-12, cumulative = 0.00153923
DILUPBiCGStab:  Solving for epsilon, Initial residual = 0.115141, Final residual = 1.31048e-07, No Iterations 3
DILUPBiCGStab:  Solving for k, Initial residual = 0.148295, Final residual = 5.35283e-07, No Iterations 3
ExecutionTime = 0.67 s  ClockTime = 1 s

Courant Number mean: 0.850179 max: 1.59632
Time = 28

diagonal:  Solving for rho, Initial residual = 0, Final residual = 0, No Iterations 0
DILUPBiCGStab:  Solving for Ux, Initial residual = 0.0309275, Final residual = 5.37836e-07, No Iterations 3
DILUPBiCGStab:  Solving for Uy, Initial residual = 0.0291434, Final residual = 7.58232e-07, No Iterations 3
DILUPBiCGStab:  Solving for Uz, Initial residual = 0.0309275, Final residual = 5.37836e-07, No Iterations 3
DILUPBiCGStab:  Solving for h, Initial residual = 0.0327788, Final residual = 9.98379e-07, No Iterations 3
DICPCG:  Solving for p_rgh, Initial residual = 0.0985358, Final residual = 0.00053625, No Iterations 9
diagonal:  Solving for rho, Initial residual = 0, Final residual = 0, No Iterations 0
time step continuity errors : sum local = 3.5052e-05, global = 4.58498e-06, cumulative = 0.00154382
DICPCG:  Solving for p_rgh, Initial residual = 0.0507396, Final residual = 4.99305e-09, No Iterations 53
diagonal:  Solving for rho, Initial residual = 0, Final residual = 0, No Iterations 0
time step continuity errors : sum local = 3.13611e-10, global = 1.00645e-12, cumulative = 0.00154382
DILUPBiCGStab:  Solving for epsilon, Initial residual = 0.108762, Final residual = 9.5914e-08, No Iterations 3
DILUPBiCGStab:  Solving for k, Initial residual = 0.141168, Final residual = 3.85213e-07, No Iterations 3
ExecutionTime = 0.71 s  ClockTime = 1 s

Courant Number mean: 0.804998 max: 1.50407
Time = 30

diagonal:  Solving for rho, Initial residual = 0, Final residual = 0, No Iterations 0
DILUPBiCGStab:  Solving for Ux, Initial residual = 0.0292233, Final residual = 3.91076e-07, No Iterations 3
DILUPBiCGStab:  Solving for Uy, Initial residual = 0.0273958, Final residual = 5.71487e-07, No Iterations 3
DILUPBiCGStab:  Solving for Uz, Initial residual = 0.0292233, Final residual = 3.91076e-07, No Iterations 3
DILUPBiCGStab:  Solving for h, Initial residual = 0.0326944, Final residual = 1.01134e-07, No Iterations 3
DICPCG:  Solving for p_rgh, Initial residual = 0.0887206, Final residual = 0.000476913, No Iterations 9
diagonal:  Solving for rho, Initial residual = 0, Final residual = 0, No Iterations 0
time step continuity errors : sum local = 2.98254e-05, global = 4.30769e-06, cumulative = 0.00154813
DICPCG:  Solving for p_rgh, Initial residual = 0.0447381, Final residual = 9.02898e-09, No Iterations 52
diagonal:  Solving for rho, Initial residual = 0, Final residual = 0, No Iterations 0
time step continuity errors : sum local = 5.42464e-10, global = 7.88463e-13, cumulative = 0.00154813
DILUPBiCGStab:  Solving for epsilon, Initial residual = 0.103216, Final residual = 7.1495e-08, No Iterations 3
DILUPBiCGStab:  Solving for k, Initial residual = 0.134838, Final residual = 2.85187e-07, No Iterations 3
ExecutionTime = 0.77 s  ClockTime = 1 s

Courant Number mean: 0.764437 max: 1.44128
Time = 32

diagonal:  Solving for rho, Initial residual = 0, Final residual = 0, No Iterations 0
DILUPBiCGStab:  Solving for Ux, Initial residual = 0.0279434, Final residual = 2.92536e-07, No Iterations 3
DILUPBiCGStab:  Solving for Uy, Initial residual = 0.0258534, Final residual = 4.50869e-07, No Iterations 3
DILUPBiCGStab:  Solving for Uz, Initial residual = 0.0279434, Final residual = 2.92536e-07, No Iterations 3
DILUPBiCGStab:  Solving for h, Initial residual = 0.0347216, Final residual = 3.85837e-07, No Iterations 3
DICPCG:  Solving for p_rgh, Initial residual = 0.0848542, Final residual = 0.000492109, No Iterations 9
diagonal:  Solving for rho, Initial residual = 0, Final residual = 0, No Iterations 0
time step continuity errors : sum local = 2.92611e-05, global = 4.14505e-06, cumulative = 0.00155227
DICPCG:  Solving for p_rgh, Initial residual = 0.0408397, Final residual = 8.20908e-09, No Iterations 52
diagonal:  Solving for rho, Initial residual = 0, Final residual = 0, No Iterations 0
time step continuity errors : sum local = 4.68535e-10, global = 6.66996e-13, cumulative = 0.00155227
DILUPBiCGStab:  Solving for epsilon, Initial residual = 0.098435, Final residual = 8.04283e-07, No Iterations 2
DILUPBiCGStab:  Solving for k, Initial residual = 0.129164, Final residual = 2.20203e-07, No Iterations 3
ExecutionTime = 0.81 s  ClockTime = 1 s

Courant Number mean: 0.727742 max: 1.38027
Time = 34

diagonal:  Solving for rho, Initial residual = 0, Final residual = 0, No Iterations 0
DILUPBiCGStab:  Solving for Ux, Initial residual = 0.0268037, Final residual = 2.13952e-07, No Iterations 3
DILUPBiCGStab:  Solving for Uy, Initial residual = 0.0247018, Final residual = 3.43402e-07, No Iterations 3
DILUPBiCGStab:  Solving for Uz, Initial residual = 0.0268037, Final residual = 2.13952e-07, No Iterations 3
DILUPBiCGStab:  Solving for h, Initial residual = 0.0369842, Final residual = 3.14801e-07, No Iterations 3
DICPCG:  Solving for p_rgh, Initial residual = 0.0836125, Final residual = 0.000824989, No Iterations 8
diagonal:  Solving for rho, Initial residual = 0, Final residual = 0, No Iterations 0
time step continuity errors : sum local = 4.66086e-05, global = 4.02253e-06, cumulative = 0.00155629
DICPCG:  Solving for p_rgh, Initial residual = 0.0375896, Final residual = 9.77955e-09, No Iterations 56
diagonal:  Solving for rho, Initial residual = 0, Final residual = 0, No Iterations 0
time step continuity errors : sum local = 5.31272e-10, global = 5.09697e-13, cumulative = 0.00155629
DILUPBiCGStab:  Solving for epsilon, Initial residual = 0.0942946, Final residual = 6.35514e-07, No Iterations 2
DILUPBiCGStab:  Solving for k, Initial residual = 0.124044, Final residual = 1.74856e-07, No Iterations 3
ExecutionTime = 0.86 s  ClockTime = 1 s

Courant Number mean: 0.694354 max: 1.32064
Time = 36

diagonal:  Solving for rho, Initial residual = 0, Final residual = 0, No Iterations 0
DILUPBiCGStab:  Solving for Ux, Initial residual = 0.0256561, Final residual = 1.57493e-07, No Iterations 3
DILUPBiCGStab:  Solving for Uy, Initial residual = 0.0236835, Final residual = 2.56851e-07, No Iterations 3
DILUPBiCGStab:  Solving for Uz, Initial residual = 0.0256561, Final residual = 1.57493e-07, No Iterations 3
DILUPBiCGStab:  Solving for h, Initial residual = 0.0360163, Final residual = 4.94916e-07, No Iterations 3
DICPCG:  Solving for p_rgh, Initial residual = 0.0786119, Final residual = 0.000738681, No Iterations 7
diagonal:  Solving for rho, Initial residual = 0, Final residual = 0, No Iterations 0
time step continuity errors : sum local = 4.00795e-05, global = 3.90379e-06, cumulative = 0.0015602
DICPCG:  Solving for p_rgh, Initial residual = 0.0343397, Final residual = 8.41897e-09, No Iterations 52
diagonal:  Solving for rho, Initial residual = 0, Final residual = 0, No Iterations 0
time step continuity errors : sum local = 4.43437e-10, global = 3.3585e-13, cumulative = 0.0015602
DILUPBiCGStab:  Solving for epsilon, Initial residual = 0.0906757, Final residual = 5.06942e-07, No Iterations 2
DILUPBiCGStab:  Solving for k, Initial residual = 0.119355, Final residual = 1.43301e-07, No Iterations 3
ExecutionTime = 0.9 s  ClockTime = 2 s

Courant Number mean: 0.663877 max: 1.26232
Time = 38

diagonal:  Solving for rho, Initial residual = 0, Final residual = 0, No Iterations 0
DILUPBiCGStab:  Solving for Ux, Initial residual = 0.0245275, Final residual = 8.83883e-07, No Iterations 2
DILUPBiCGStab:  Solving for Uy, Initial residual = 0.0226873, Final residual = 1.9077e-07, No Iterations 3
DILUPBiCGStab:  Solving for Uz, Initial residual = 0.0245275, Final residual = 8.83884e-07, No Iterations 2
DILUPBiCGStab:  Solving for h, Initial residual = 0.0336644, Final residual = 3.23433e-07, No Iterations 3
DICPCG:  Solving for p_rgh, Initial residual = 0.0724143, Final residual = 0.000574119, No Iterations 7
diagonal:  Solving for rho, Initial residual = 0, Final residual = 0, No Iterations 0
time step continuity errors : sum local = 3.0244e-05, global = 3.77545e-06, cumulative = 0.00156397
DICPCG:  Solving for p_rgh, Initial residual = 0.0311223, Final residual = 9.06756e-09, No Iterations 52
diagonal:  Solving for rho, Initial residual = 0, Final residual = 0, No Iterations 0
time step continuity errors : sum local = 4.64824e-10, global = 2.5302e-13, cumulative = 0.00156397
DILUPBiCGStab:  Solving for epsilon, Initial residual = 0.0874504, Final residual = 4.07891e-07, No Iterations 2
DILUPBiCGStab:  Solving for k, Initial residual = 0.115004, Final residual = 1.2264e-07, No Iterations 3
ExecutionTime = 0.95 s  ClockTime = 2 s

Courant Number mean: 0.636023 max: 1.20519
Time = 40

diagonal:  Solving for rho, Initial residual = 0, Final residual = 0, No Iterations 0
DILUPBiCGStab:  Solving for Ux, Initial residual = 0.0234896, Final residual = 7.01127e-07, No Iterations 2
DILUPBiCGStab:  Solving for Uy, Initial residual = 0.0217092, Final residual = 8.13758e-07, No Iterations 2
DILUPBiCGStab:  Solving for Uz, Initial residual = 0.0234896, Final residual = 7.01127e-07, No Iterations 2
DILUPBiCGStab:  Solving for h, Initial residual = 0.031043, Final residual = 1.72184e-07, No Iterations 3
DICPCG:  Solving for p_rgh, Initial residual = 0.0663462, Final residual = 0.000527082, No Iterations 7
diagonal:  Solving for rho, Initial residual = 0, Final residual = 0, No Iterations 0
time step continuity errors : sum local = 2.70465e-05, global = 3.6368e-06, cumulative = 0.00156761
DICPCG:  Solving for p_rgh, Initial residual = 0.0281982, Final residual = 6.87572e-09, No Iterations 56
diagonal:  Solving for rho, Initial residual = 0, Final residual = 0, No Iterations 0
time step continuity errors : sum local = 3.43877e-10, global = 2.13596e-13, cumulative = 0.00156761
DILUPBiCGStab:  Solving for epsilon, Initial residual = 0.0845295, Final residual = 3.3108e-07, No Iterations 2
DILUPBiCGStab:  Solving for k, Initial residual = 0.110911, Final residual = 1.10823e-07, No Iterations 3
ExecutionTime = 0.99 s  ClockTime = 2 s

Courant Number mean: 0.610576 max: 1.14929
Time = 42

diagonal:  Solving for rho, Initial residual = 0, Final residual = 0, No Iterations 0
DILUPBiCGStab:  Solving for Ux, Initial residual = 0.0225787, Final residual = 5.63462e-07, No Iterations 2
DILUPBiCGStab:  Solving for Uy, Initial residual = 0.0208129, Final residual = 6.36634e-07, No Iterations 2
DILUPBiCGStab:  Solving for Uz, Initial residual = 0.0225787, Final residual = 5.63461e-07, No Iterations 2
DILUPBiCGStab:  Solving for h, Initial residual = 0.0286854, Final residual = 1.54308e-07, No Iterations 3
DICPCG:  Solving for p_rgh, Initial residual = 0.0624021, Final residual = 0.000492072, No Iterations 7
diagonal:  Solving for rho, Initial residual = 0, Final residual = 0, No Iterations 0
time step continuity errors : sum local = 2.46285e-05, global = 3.49522e-06, cumulative = 0.00157111
DICPCG:  Solving for p_rgh, Initial residual = 0.0258156, Final residual = 6.19896e-09, No Iterations 56
diagonal:  Solving for rho, Initial residual = 0, Final residual = 0, No Iterations 0
time step continuity errors : sum local = 3.02719e-10, global = 1.88285e-13, cumulative = 0.00157111
DILUPBiCGStab:  Solving for epsilon, Initial residual = 0.0818137, Final residual = 2.70086e-07, No Iterations 2
DILUPBiCGStab:  Solving for k, Initial residual = 0.107017, Final residual = 8.69552e-07, No Iterations 2
ExecutionTime = 1.03 s  ClockTime = 2 s

Courant Number mean: 0.58724 max: 1.09853
Time = 44

diagonal:  Solving for rho, Initial residual = 0, Final residual = 0, No Iterations 0
DILUPBiCGStab:  Solving for Ux, Initial residual = 0.0218955, Final residual = 4.58973e-07, No Iterations 2
DILUPBiCGStab:  Solving for Uy, Initial residual = 0.0199831, Final residual = 5.08575e-07, No Iterations 2
DILUPBiCGStab:  Solving for Uz, Initial residual = 0.0218955, Final residual = 4.58974e-07, No Iterations 2
DILUPBiCGStab:  Solving for h, Initial residual = 0.026969, Final residual = 8.25018e-07, No Iterations 2
DICPCG:  Solving for p_rgh, Initial residual = 0.0594116, Final residual = 0.000500963, No Iterations 7
diagonal:  Solving for rho, Initial residual = 0, Final residual = 0, No Iterations 0
time step continuity errors : sum local = 2.44631e-05, global = 3.35395e-06, cumulative = 0.00157446
DICPCG:  Solving for p_rgh, Initial residual = 0.024091, Final residual = 5.44829e-09, No Iterations 56
diagonal:  Solving for rho, Initial residual = 0, Final residual = 0, No Iterations 0
time step continuity errors : sum local = 2.59912e-10, global = 2.14007e-13, cumulative = 0.00157446
DILUPBiCGStab:  Solving for epsilon, Initial residual = 0.0792083, Final residual = 2.20514e-07, No Iterations 2
DILUPBiCGStab:  Solving for k, Initial residual = 0.103425, Final residual = 7.06853e-07, No Iterations 2
ExecutionTime = 1.08 s  ClockTime = 2 s

Courant Number mean: 0.565616 max: 1.04987
Time = 46

diagonal:  Solving for rho, Initial residual = 0, Final residual = 0, No Iterations 0
DILUPBiCGStab:  Solving for Ux, Initial residual = 0.0214741, Final residual = 3.81029e-07, No Iterations 2
DILUPBiCGStab:  Solving for Uy, Initial residual = 0.0193025, Final residual = 4.23221e-07, No Iterations 2
DILUPBiCGStab:  Solving for Uz, Initial residual = 0.0214741, Final residual = 3.81029e-07, No Iterations 2
DILUPBiCGStab:  Solving for h, Initial residual = 0.0259987, Final residual = 7.24494e-07, No Iterations 2
DICPCG:  Solving for p_rgh, Initial residual = 0.0575198, Final residual = 0.000544767, No Iterations 7
diagonal:  Solving for rho, Initial residual = 0, Final residual = 0, No Iterations 0
time step continuity errors : sum local = 2.60526e-05, global = 3.21673e-06, cumulative = 0.00157768
DICPCG:  Solving for p_rgh, Initial residual = 0.0226321, Final residual = 9.42945e-09, No Iterations 55
diagonal:  Solving for rho, Initial residual = 0, Final residual = 0, No Iterations 0
time step continuity errors : sum local = 4.42629e-10, global = 2.06373e-13, cumulative = 0.00157768
DILUPBiCGStab:  Solving for epsilon, Initial residual = 0.0767276, Final residual = 1.80488e-07, No Iterations 2
DILUPBiCGStab:  Solving for k, Initial residual = 0.100063, Final residual = 5.80529e-07, No Iterations 2
ExecutionTime = 1.12 s  ClockTime = 2 s

Courant Number mean: 0.545589 max: 1.00236
Time = 48

diagonal:  Solving for rho, Initial residual = 0, Final residual = 0, No Iterations 0
DILUPBiCGStab:  Solving for Ux, Initial residual = 0.0211647, Final residual = 3.20503e-07, No Iterations 2
DILUPBiCGStab:  Solving for Uy, Initial residual = 0.0187488, Final residual = 3.56694e-07, No Iterations 2
DILUPBiCGStab:  Solving for Uz, Initial residual = 0.0211647, Final residual = 3.20503e-07, No Iterations 2
DILUPBiCGStab:  Solving for h, Initial residual = 0.025475, Final residual = 7.46114e-08, No Iterations 3
DICPCG:  Solving for p_rgh, Initial residual = 0.0558098, Final residual = 0.000522882, No Iterations 8
diagonal:  Solving for rho, Initial residual = 0, Final residual = 0, No Iterations 0
time step continuity errors : sum local = 2.46002e-05, global = 3.09175e-06, cumulative = 0.00158077
DICPCG:  Solving for p_rgh, Initial residual = 0.0211359, Final residual = 8.46567e-09, No Iterations 55
diagonal:  Solving for rho, Initial residual = 0, Final residual = 0, No Iterations 0
time step continuity errors : sum local = 3.91733e-10, global = 2.11274e-13, cumulative = 0.00158077
DILUPBiCGStab:  Solving for epsilon, Initial residual = 0.0745249, Final residual = 1.4848e-07, No Iterations 2
DILUPBiCGStab:  Solving for k, Initial residual = 0.0969083, Final residual = 4.80502e-07, No Iterations 2
ExecutionTime = 1.16 s  ClockTime = 2 s

Courant Number mean: 0.526912 max: 0.956882
Time = 50

diagonal:  Solving for rho, Initial residual = 0, Final residual = 0, No Iterations 0
DILUPBiCGStab:  Solving for Ux, Initial residual = 0.0209461, Final residual = 2.73469e-07, No Iterations 2
DILUPBiCGStab:  Solving for Uy, Initial residual = 0.0182874, Final residual = 3.0447e-07, No Iterations 2
DILUPBiCGStab:  Solving for Uz, Initial residual = 0.0209461, Final residual = 2.73469e-07, No Iterations 2
DILUPBiCGStab:  Solving for h, Initial residual = 0.0252784, Final residual = 3.85478e-08, No Iterations 3
DICPCG:  Solving for p_rgh, Initial residual = 0.0538217, Final residual = 0.000387766, No Iterations 9
diagonal:  Solving for rho, Initial residual = 0, Final residual = 0, No Iterations 0
time step continuity errors : sum local = 1.80224e-05, global = 2.98147e-06, cumulative = 0.00158375
DICPCG:  Solving for p_rgh, Initial residual = 0.0199757, Final residual = 5.12614e-09, No Iterations 52
diagonal:  Solving for rho, Initial residual = 0, Final residual = 0, No Iterations 0
time step continuity errors : sum local = 2.35018e-10, global = 2.30121e-13, cumulative = 0.00158375
DILUPBiCGStab:  Solving for epsilon, Initial residual = 0.072455, Final residual = 1.23433e-07, No Iterations 2
DILUPBiCGStab:  Solving for k, Initial residual = 0.0938982, Final residual = 4.01028e-07, No Iterations 2
ExecutionTime = 1.26 s  ClockTime = 2 s

Courant Number mean: 0.509566 max: 0.927541
Time = 52

diagonal:  Solving for rho, Initial residual = 0, Final residual = 0, No Iterations 0
DILUPBiCGStab:  Solving for Ux, Initial residual = 0.020801, Final residual = 2.38092e-07, No Iterations 2
DILUPBiCGStab:  Solving for Uy, Initial residual = 0.0178918, Final residual = 2.59542e-07, No Iterations 2
DILUPBiCGStab:  Solving for Uz, Initial residual = 0.020801, Final residual = 2.38092e-07, No Iterations 2
DILUPBiCGStab:  Solving for h, Initial residual = 0.0256693, Final residual = 8.52203e-07, No Iterations 2
DICPCG:  Solving for p_rgh, Initial residual = 0.0545023, Final residual = 0.000407029, No Iterations 9
diagonal:  Solving for rho, Initial residual = 0, Final residual = 0, No Iterations 0
time step continuity errors : sum local = 1.87197e-05, global = 2.88837e-06, cumulative = 0.00158664
DICPCG:  Solving for p_rgh, Initial residual = 0.0191505, Final residual = 4.18198e-09, No Iterations 52
diagonal:  Solving for rho, Initial residual = 0, Final residual = 0, No Iterations 0
time step continuity errors : sum local = 1.89618e-10, global = 2.2174e-13, cumulative = 0.00158664
DILUPBiCGStab:  Solving for epsilon, Initial residual = 0.0704424, Final residual = 1.02857e-07, No Iterations 2
DILUPBiCGStab:  Solving for k, Initial residual = 0.0910609, Final residual = 3.3677e-07, No Iterations 2
ExecutionTime = 1.3 s  ClockTime = 2 s

Courant Number mean: 0.493259 max: 0.929298
Time = 54

diagonal:  Solving for rho, Initial residual = 0, Final residual = 0, No Iterations 0
DILUPBiCGStab:  Solving for Ux, Initial residual = 0.0207536, Final residual = 2.13447e-07, No Iterations 2
DILUPBiCGStab:  Solving for Uy, Initial residual = 0.0175722, Final residual = 2.23212e-07, No Iterations 2
DILUPBiCGStab:  Solving for Uz, Initial residual = 0.0207536, Final residual = 2.13448e-07, No Iterations 2
DILUPBiCGStab:  Solving for h, Initial residual = 0.0264412, Final residual = 6.57398e-07, No Iterations 2
DICPCG:  Solving for p_rgh, Initial residual = 0.0536343, Final residual = 0.000428718, No Iterations 9
diagonal:  Solving for rho, Initial residual = 0, Final residual = 0, No Iterations 0
time step continuity errors : sum local = 1.95526e-05, global = 2.81044e-06, cumulative = 0.00158945
DICPCG:  Solving for p_rgh, Initial residual = 0.0185356, Final residual = 9.12691e-09, No Iterations 52
diagonal:  Solving for rho, Initial residual = 0, Final residual = 0, No Iterations 0
time step continuity errors : sum local = 4.11871e-10, global = 2.45323e-13, cumulative = 0.00158945
DILUPBiCGStab:  Solving for epsilon, Initial residual = 0.0686977, Final residual = 8.57137e-08, No Iterations 2
DILUPBiCGStab:  Solving for k, Initial residual = 0.088392, Final residual = 2.84134e-07, No Iterations 2
ExecutionTime = 1.35 s  ClockTime = 2 s

Courant Number mean: 0.477976 max: 0.958691
Time = 56

diagonal:  Solving for rho, Initial residual = 0, Final residual = 0, No Iterations 0
DILUPBiCGStab:  Solving for Ux, Initial residual = 0.0208509, Final residual = 1.93936e-07, No Iterations 2
DILUPBiCGStab:  Solving for Uy, Initial residual = 0.0173009, Final residual = 1.96073e-07, No Iterations 2
DILUPBiCGStab:  Solving for Uz, Initial residual = 0.0208509, Final residual = 1.93936e-07, No Iterations 2
DILUPBiCGStab:  Solving for h, Initial residual = 0.0273851, Final residual = 5.46047e-07, No Iterations 2
DICPCG:  Solving for p_rgh, Initial residual = 0.0550428, Final residual = 0.000435604, No Iterations 9
diagonal:  Solving for rho, Initial residual = 0, Final residual = 0, No Iterations 0
time step continuity errors : sum local = 1.97426e-05, global = 2.74648e-06, cumulative = 0.00159219
DICPCG:  Solving for p_rgh, Initial residual = 0.0182162, Final residual = 8.17607e-09, No Iterations 55
diagonal:  Solving for rho, Initial residual = 0, Final residual = 0, No Iterations 0
time step continuity errors : sum local = 3.66722e-10, global = 2.8006e-13, cumulative = 0.00159219
DILUPBiCGStab:  Solving for epsilon, Initial residual = 0.0670108, Final residual = 7.15556e-08, No Iterations 2
DILUPBiCGStab:  Solving for k, Initial residual = 0.0857923, Final residual = 2.39369e-07, No Iterations 2
ExecutionTime = 1.4 s  ClockTime = 2 s

Courant Number mean: 0.463554 max: 0.986336
Time = 58

diagonal:  Solving for rho, Initial residual = 0, Final residual = 0, No Iterations 0
DILUPBiCGStab:  Solving for Ux, Initial residual = 0.0211292, Final residual = 1.76288e-07, No Iterations 2
DILUPBiCGStab:  Solving for Uy, Initial residual = 0.0170846, Final residual = 1.7496e-07, No Iterations 2
DILUPBiCGStab:  Solving for Uz, Initial residual = 0.0211292, Final residual = 1.76288e-07, No Iterations 2
DILUPBiCGStab:  Solving for h, Initial residual = 0.0278601, Final residual = 4.46528e-07, No Iterations 2
DICPCG:  Solving for p_rgh, Initial residual = 0.0559366, Final residual = 0.000447658, No Iterations 9
diagonal:  Solving for rho, Initial residual = 0, Final residual = 0, No Iterations 0
time step continuity errors : sum local = 2.01305e-05, global = 2.6919e-06, cumulative = 0.00159489
DICPCG:  Solving for p_rgh, Initial residual = 0.018215, Final residual = 8.16293e-09, No Iterations 55
diagonal:  Solving for rho, Initial residual = 0, Final residual = 0, No Iterations 0
time step continuity errors : sum local = 3.62716e-10, global = 2.83787e-13, cumulative = 0.00159489
DILUPBiCGStab:  Solving for epsilon, Initial residual = 0.0653441, Final residual = 5.83686e-08, No Iterations 2
DILUPBiCGStab:  Solving for k, Initial residual = 0.0832539, Final residual = 2.00916e-07, No Iterations 2
ExecutionTime = 1.44 s  ClockTime = 2 s

Courant Number mean: 0.449902 max: 1.01062
Time = 60

diagonal:  Solving for rho, Initial residual = 0, Final residual = 0, No Iterations 0
DILUPBiCGStab:  Solving for Ux, Initial residual = 0.021598, Final residual = 1.62862e-07, No Iterations 2
DILUPBiCGStab:  Solving for Uy, Initial residual = 0.0169918, Final residual = 1.53806e-07, No Iterations 2
DILUPBiCGStab:  Solving for Uz, Initial residual = 0.021598, Final residual = 1.62862e-07, No Iterations 2
DILUPBiCGStab:  Solving for h, Initial residual = 0.027873, Final residual = 3.63848e-07, No Iterations 2
DICPCG:  Solving for p_rgh, Initial residual = 0.0589022, Final residual = 0.000466196, No Iterations 9
diagonal:  Solving for rho, Initial residual = 0, Final residual = 0, No Iterations 0
time step continuity errors : sum local = 2.08152e-05, global = 2.6457e-06, cumulative = 0.00159753
DICPCG:  Solving for p_rgh, Initial residual = 0.0182428, Final residual = 8.8728e-09, No Iterations 52
diagonal:  Solving for rho, Initial residual = 0, Final residual = 0, No Iterations 0
time step continuity errors : sum local = 3.92628e-10, global = 2.91067e-13, cumulative = 0.00159753
DILUPBiCGStab:  Solving for epsilon, Initial residual = 0.0638669, Final residual = 4.7849e-08, No Iterations 2
DILUPBiCGStab:  Solving for k, Initial residual = 0.0807715, Final residual = 1.68582e-07, No Iterations 2
ExecutionTime = 1.48 s  ClockTime = 2 s

Courant Number mean: 0.436788 max: 1.08276
Time = 62

diagonal:  Solving for rho, Initial residual = 0, Final residual = 0, No Iterations 0
DILUPBiCGStab:  Solving for Ux, Initial residual = 0.0222554, Final residual = 1.57976e-07, No Iterations 2
DILUPBiCGStab:  Solving for Uy, Initial residual = 0.016958, Final residual = 1.34601e-07, No Iterations 2
DILUPBiCGStab:  Solving for Uz, Initial residual = 0.0222554, Final residual = 1.57976e-07, No Iterations 2
DILUPBiCGStab:  Solving for h, Initial residual = 0.0277089, Final residual = 3.01401e-07, No Iterations 2
DICPCG:  Solving for p_rgh, Initial residual = 0.0609552, Final residual = 0.000480309, No Iterations 9
diagonal:  Solving for rho, Initial residual = 0, Final residual = 0, No Iterations 0
time step continuity errors : sum local = 2.14959e-05, global = 2.60555e-06, cumulative = 0.00160014
DICPCG:  Solving for p_rgh, Initial residual = 0.018119, Final residual = 7.60267e-09, No Iterations 52
diagonal:  Solving for rho, Initial residual = 0, Final residual = 0, No Iterations 0
time step continuity errors : sum local = 3.39499e-10, global = 2.85977e-13, cumulative = 0.00160014
DILUPBiCGStab:  Solving for epsilon, Initial residual = 0.0621165, Final residual = 4.11623e-08, No Iterations 2
DILUPBiCGStab:  Solving for k, Initial residual = 0.0783061, Final residual = 1.43773e-07, No Iterations 2
ExecutionTime = 1.53 s  ClockTime = 2 s

Courant Number mean: 0.424239 max: 1.1458
Time = 64

diagonal:  Solving for rho, Initial residual = 0, Final residual = 0, No Iterations 0
DILUPBiCGStab:  Solving for Ux, Initial residual = 0.0229734, Final residual = 1.52895e-07, No Iterations 2
DILUPBiCGStab:  Solving for Uy, Initial residual = 0.0170365, Final residual = 1.19908e-07, No Iterations 2
DILUPBiCGStab:  Solving for Uz, Initial residual = 0.0229734, Final residual = 1.52894e-07, No Iterations 2
DILUPBiCGStab:  Solving for h, Initial residual = 0.0279319, Final residual = 2.60295e-07, No Iterations 2
DICPCG:  Solving for p_rgh, Initial residual = 0.0620593, Final residual = 0.000488474, No Iterations 9
diagonal:  Solving for rho, Initial residual = 0, Final residual = 0, No Iterations 0
time step continuity errors : sum local = 2.2013e-05, global = 2.57006e-06, cumulative = 0.00160271
DICPCG:  Solving for p_rgh, Initial residual = 0.0183015, Final residual = 9.23639e-09, No Iterations 55
diagonal:  Solving for rho, Initial residual = 0, Final residual = 0, No Iterations 0
time step continuity errors : sum local = 4.14858e-10, global = 3.03475e-13, cumulative = 0.00160271
DILUPBiCGStab:  Solving for epsilon, Initial residual = 0.0607754, Final residual = 3.72995e-08, No Iterations 2
DILUPBiCGStab:  Solving for k, Initial residual = 0.0760447, Final residual = 1.23637e-07, No Iterations 2
ExecutionTime = 1.57 s  ClockTime = 3 s

Courant Number mean: 0.412316 max: 1.20006
Time = 66

diagonal:  Solving for rho, Initial residual = 0, Final residual = 0, No Iterations 0
DILUPBiCGStab:  Solving for Ux, Initial residual = 0.0237411, Final residual = 1.48479e-07, No Iterations 2
DILUPBiCGStab:  Solving for Uy, Initial residual = 0.0171033, Final residual = 1.08524e-07, No Iterations 2
DILUPBiCGStab:  Solving for Uz, Initial residual = 0.0237411, Final residual = 1.48479e-07, No Iterations 2
DILUPBiCGStab:  Solving for h, Initial residual = 0.0284079, Final residual = 2.4519e-07, No Iterations 2
DICPCG:  Solving for p_rgh, Initial residual = 0.0661781, Final residual = 0.000506376, No Iterations 9
diagonal:  Solving for rho, Initial residual = 0, Final residual = 0, No Iterations 0
time step continuity errors : sum local = 2.26638e-05, global = 2.53794e-06, cumulative = 0.00160525
DICPCG:  Solving for p_rgh, Initial residual = 0.0191723, Final residual = 9.83092e-09, No Iterations 55
diagonal:  Solving for rho, Initial residual = 0, Final residual = 0, No Iterations 0
time step continuity errors : sum local = 4.3453e-10, global = 3.16408e-13, cumulative = 0.00160525
DILUPBiCGStab:  Solving for epsilon, Initial residual = 0.0591925, Final residual = 3.44267e-08, No Iterations 2
DILUPBiCGStab:  Solving for k, Initial residual = 0.0736198, Final residual = 1.06661e-07, No Iterations 2
ExecutionTime = 1.62 s  ClockTime = 3 s

Courant Number mean: 0.400705 max: 1.2445
Time = 68

diagonal:  Solving for rho, Initial residual = 0, Final residual = 0, No Iterations 0
DILUPBiCGStab:  Solving for Ux, Initial residual = 0.0246664, Final residual = 1.46845e-07, No Iterations 2
DILUPBiCGStab:  Solving for Uy, Initial residual = 0.0171754, Final residual = 9.56649e-08, No Iterations 2
DILUPBiCGStab:  Solving for Uz, Initial residual = 0.0246664, Final residual = 1.46845e-07, No Iterations 2
DILUPBiCGStab:  Solving for h, Initial residual = 0.029062, Final residual = 2.54561e-07, No Iterations 2
DICPCG:  Solving for p_rgh, Initial residual = 0.0689068, Final residual = 0.00053705, No Iterations 9
diagonal:  Solving for rho, Initial residual = 0, Final residual = 0, No Iterations 0
time step continuity errors : sum local = 2.40867e-05, global = 2.50807e-06, cumulative = 0.00160775
DICPCG:  Solving for p_rgh, Initial residual = 0.0194577, Final residual = 9.13654e-09, No Iterations 55
diagonal:  Solving for rho, Initial residual = 0, Final residual = 0, No Iterations 0
time step continuity errors : sum local = 4.10751e-10, global = 3.18237e-13, cumulative = 0.00160775
DILUPBiCGStab:  Solving for epsilon, Initial residual = 0.0577111, Final residual = 9.99028e-07, No Iterations 2
DILUPBiCGStab:  Solving for k, Initial residual = 0.0713675, Final residual = 9.09508e-08, No Iterations 2
ExecutionTime = 1.67 s  ClockTime = 3 s

Courant Number mean: 0.389504 max: 1.27713
Time = 70

diagonal:  Solving for rho, Initial residual = 0, Final residual = 0, No Iterations 0
DILUPBiCGStab:  Solving for Ux, Initial residual = 0.0257058, Final residual = 1.31293e-07, No Iterations 2
DILUPBiCGStab:  Solving for Uy, Initial residual = 0.0174063, Final residual = 8.5009e-08, No Iterations 2
DILUPBiCGStab:  Solving for Uz, Initial residual = 0.0257058, Final residual = 1.31293e-07, No Iterations 2
DILUPBiCGStab:  Solving for h, Initial residual = 0.0293948, Final residual = 2.37915e-07, No Iterations 2
DICPCG:  Solving for p_rgh, Initial residual = 0.0706885, Final residual = 0.000556658, No Iterations 9
diagonal:  Solving for rho, Initial residual = 0, Final residual = 0, No Iterations 0
time step continuity errors : sum local = 2.53375e-05, global = 2.48063e-06, cumulative = 0.00161023
DICPCG:  Solving for p_rgh, Initial residual = 0.01988, Final residual = 6.2982e-09, No Iterations 52
diagonal:  Solving for rho, Initial residual = 0, Final residual = 0, No Iterations 0
time step continuity errors : sum local = 2.87229e-10, global = 3.10242e-13, cumulative = 0.00161023
DILUPBiCGStab:  Solving for epsilon, Initial residual = 0.0564958, Final residual = 9.0965e-07, No Iterations 2
DILUPBiCGStab:  Solving for k, Initial residual = 0.0691316, Final residual = 7.73993e-08, No Iterations 2
ExecutionTime = 1.71 s  ClockTime = 3 s

Courant Number mean: 0.378807 max: 1.29712
Time = 72

diagonal:  Solving for rho, Initial residual = 0, Final residual = 0, No Iterations 0
DILUPBiCGStab:  Solving for Ux, Initial residual = 0.0268073, Final residual = 1.21625e-07, No Iterations 2
DILUPBiCGStab:  Solving for Uy, Initial residual = 0.0177481, Final residual = 7.56584e-08, No Iterations 2
DILUPBiCGStab:  Solving for Uz, Initial residual = 0.0268073, Final residual = 1.21625e-07, No Iterations 2
DILUPBiCGStab:  Solving for h, Initial residual = 0.0294458, Final residual = 2.01843e-07, No Iterations 2
DICPCG:  Solving for p_rgh, Initial residual = 0.0781527, Final residual = 0.000599812, No Iterations 9
diagonal:  Solving for rho, Initial residual = 0, Final residual = 0, No Iterations 0
time step continuity errors : sum local = 2.72816e-05, global = 2.45529e-06, cumulative = 0.00161269
DICPCG:  Solving for p_rgh, Initial residual = 0.0208286, Final residual = 5.68083e-09, No Iterations 52
diagonal:  Solving for rho, Initial residual = 0, Final residual = 0, No Iterations 0
time step continuity errors : sum local = 2.56215e-10, global = 2.75379e-13, cumulative = 0.00161269
DILUPBiCGStab:  Solving for epsilon, Initial residual = 0.0551241, Final residual = 8.48127e-07, No Iterations 2
DILUPBiCGStab:  Solving for k, Initial residual = 0.0669428, Final residual = 6.61871e-08, No Iterations 2
ExecutionTime = 1.75 s  ClockTime = 3 s

Courant Number mean: 0.368176 max: 1.31629
Time = 74

diagonal:  Solving for rho, Initial residual = 0, Final residual = 0, No Iterations 0
DILUPBiCGStab:  Solving for Ux, Initial residual = 0.0281677, Final residual = 1.10041e-07, No Iterations 2
DILUPBiCGStab:  Solving for Uy, Initial residual = 0.0180304, Final residual = 6.622e-08, No Iterations 2
DILUPBiCGStab:  Solving for Uz, Initial residual = 0.0281677, Final residual = 1.10041e-07, No Iterations 2
DILUPBiCGStab:  Solving for h, Initial residual = 0.0294533, Final residual = 1.55851e-07, No Iterations 2
DICPCG:  Solving for p_rgh, Initial residual = 0.0793019, Final residual = 0.000637998, No Iterations 9
diagonal:  Solving for rho, Initial residual = 0, Final residual = 0, No Iterations 0
time step continuity errors : sum local = 2.92794e-05, global = 2.43103e-06, cumulative = 0.00161512
DICPCG:  Solving for p_rgh, Initial residual = 0.0210228, Final residual = 9.97832e-09, No Iterations 52
diagonal:  Solving for rho, Initial residual = 0, Final residual = 0, No Iterations 0
time step continuity errors : sum local = 4.62105e-10, global = 2.72136e-13, cumulative = 0.00161512
DILUPBiCGStab:  Solving for epsilon, Initial residual = 0.0541189, Final residual = 7.87189e-07, No Iterations 2
DILUPBiCGStab:  Solving for k, Initial residual = 0.064883, Final residual = 5.57777e-08, No Iterations 2
ExecutionTime = 1.8 s  ClockTime = 3 s

Courant Number mean: 0.357959 max: 1.35509
Time = 76

diagonal:  Solving for rho, Initial residual = 0, Final residual = 0, No Iterations 0
DILUPBiCGStab:  Solving for Ux, Initial residual = 0.0296728, Final residual = 9.21136e-08, No Iterations 2
DILUPBiCGStab:  Solving for Uy, Initial residual = 0.0185064, Final residual = 5.78336e-08, No Iterations 2
DILUPBiCGStab:  Solving for Uz, Initial residual = 0.0296728, Final residual = 9.21133e-08, No Iterations 2
DILUPBiCGStab:  Solving for h, Initial residual = 0.0295453, Final residual = 1.39765e-07, No Iterations 2
DICPCG:  Solving for p_rgh, Initial residual = 0.0843308, Final residual = 0.000648689, No Iterations 9
diagonal:  Solving for rho, Initial residual = 0, Final residual = 0, No Iterations 0
time step continuity errors : sum local = 3.02022e-05, global = 2.40882e-06, cumulative = 0.00161753
DICPCG:  Solving for p_rgh, Initial residual = 0.0219813, Final residual = 7.97019e-09, No Iterations 55
diagonal:  Solving for rho, Initial residual = 0, Final residual = 0, No Iterations 0
time step continuity errors : sum local = 3.71379e-10, global = 2.27689e-13, cumulative = 0.00161753
DILUPBiCGStab:  Solving for epsilon, Initial residual = 0.052646, Final residual = 7.26887e-07, No Iterations 2
DILUPBiCGStab:  Solving for k, Initial residual = 0.0627125, Final residual = 4.86621e-08, No Iterations 2
ExecutionTime = 1.84 s  ClockTime = 3 s

Courant Number mean: 0.347987 max: 1.38226
Time = 78

diagonal:  Solving for rho, Initial residual = 0, Final residual = 0, No Iterations 0
DILUPBiCGStab:  Solving for Ux, Initial residual = 0.0310106, Final residual = 8.12792e-08, No Iterations 2
DILUPBiCGStab:  Solving for Uy, Initial residual = 0.0189906, Final residual = 4.9986e-08, No Iterations 2
DILUPBiCGStab:  Solving for Uz, Initial residual = 0.0310106, Final residual = 8.12792e-08, No Iterations 2
DILUPBiCGStab:  Solving for h, Initial residual = 0.0294732, Final residual = 1.584e-07, No Iterations 2
DICPCG:  Solving for p_rgh, Initial residual = 0.0914015, Final residual = 0.000701691, No Iterations 9
diagonal:  Solving for rho, Initial residual = 0, Final residual = 0, No Iterations 0
time step continuity errors : sum local = 3.29192e-05, global = 2.38842e-06, cumulative = 0.00161992
DICPCG:  Solving for p_rgh, Initial residual = 0.0222798, Final residual = 6.15364e-09, No Iterations 56
diagonal:  Solving for rho, Initial residual = 0, Final residual = 0, No Iterations 0
time step continuity errors : sum local = 2.89313e-10, global = 1.79777e-13, cumulative = 0.00161992
DILUPBiCGStab:  Solving for epsilon, Initial residual = 0.0509741, Final residual = 6.78961e-07, No Iterations 2
DILUPBiCGStab:  Solving for k, Initial residual = 0.0605725, Final residual = 4.24871e-08, No Iterations 2
ExecutionTime = 1.89 s  ClockTime = 3 s

Courant Number mean: 0.338414 max: 1.39869
Time = 80

diagonal:  Solving for rho, Initial residual = 0, Final residual = 0, No Iterations 0
DILUPBiCGStab:  Solving for Ux, Initial residual = 0.0324436, Final residual = 6.65373e-08, No Iterations 2
DILUPBiCGStab:  Solving for Uy, Initial residual = 0.0193875, Final residual = 8.83148e-07, No Iterations 2
DILUPBiCGStab:  Solving for Uz, Initial residual = 0.0324436, Final residual = 6.65373e-08, No Iterations 2
DILUPBiCGStab:  Solving for h, Initial residual = 0.0293912, Final residual = 1.84229e-07, No Iterations 2
DICPCG:  Solving for p_rgh, Initial residual = 0.0897255, Final residual = 0.00073214, No Iterations 9
diagonal:  Solving for rho, Initial residual = 0, Final residual = 0, No Iterations 0
time step continuity errors : sum local = 3.48506e-05, global = 2.36931e-06, cumulative = 0.00162229
DICPCG:  Solving for p_rgh, Initial residual = 0.0227027, Final residual = 9.63108e-09, No Iterations 52
diagonal:  Solving for rho, Initial residual = 0, Final residual = 0, No Iterations 0
time step continuity errors : sum local = 4.62676e-10, global = 1.87482e-13, cumulative = 0.00162229
DILUPBiCGStab:  Solving for epsilon, Initial residual = 0.0502405, Final residual = 6.16963e-07, No Iterations 2
DILUPBiCGStab:  Solving for k, Initial residual = 0.0588145, Final residual = 3.69654e-08, No Iterations 2
ExecutionTime = 1.93 s  ClockTime = 3 s

Courant Number mean: 0.3292 max: 1.4052
Time = 82

diagonal:  Solving for rho, Initial residual = 0, Final residual = 0, No Iterations 0
DILUPBiCGStab:  Solving for Ux, Initial residual = 0.0341174, Final residual = 5.58746e-08, No Iterations 2
DILUPBiCGStab:  Solving for Uy, Initial residual = 0.019932, Final residual = 7.80969e-07, No Iterations 2
DILUPBiCGStab:  Solving for Uz, Initial residual = 0.0341174, Final residual = 5.58744e-08, No Iterations 2
DILUPBiCGStab:  Solving for h, Initial residual = 0.0292313, Final residual = 2.15518e-07, No Iterations 2
DICPCG:  Solving for p_rgh, Initial residual = 0.101191, Final residual = 0.000764646, No Iterations 9
diagonal:  Solving for rho, Initial residual = 0, Final residual = 0, No Iterations 0
time step continuity errors : sum local = 3.68403e-05, global = 2.35115e-06, cumulative = 0.00162464
DICPCG:  Solving for p_rgh, Initial residual = 0.0234444, Final residual = 8.69849e-09, No Iterations 52
diagonal:  Solving for rho, Initial residual = 0, Final residual = 0, No Iterations 0
time step continuity errors : sum local = 4.1963e-10, global = 1.31138e-13, cumulative = 0.00162464
DILUPBiCGStab:  Solving for epsilon, Initial residual = 0.0489984, Final residual = 5.59926e-07, No Iterations 2
DILUPBiCGStab:  Solving for k, Initial residual = 0.0571404, Final residual = 3.28395e-08, No Iterations 2
ExecutionTime = 1.97 s  ClockTime = 3 s

Courant Number mean: 0.320406 max: 1.40648
Time = 84

diagonal:  Solving for rho, Initial residual = 0, Final residual = 0, No Iterations 0
DILUPBiCGStab:  Solving for Ux, Initial residual = 0.0356709, Final residual = 4.65671e-08, No Iterations 2
DILUPBiCGStab:  Solving for Uy, Initial residual = 0.0203793, Final residual = 6.68186e-07, No Iterations 2
DILUPBiCGStab:  Solving for Uz, Initial residual = 0.0356709, Final residual = 4.65672e-08, No Iterations 2
DILUPBiCGStab:  Solving for h, Initial residual = 0.029121, Final residual = 2.9504e-07, No Iterations 2
DICPCG:  Solving for p_rgh, Initial residual = 0.0976269, Final residual = 0.000795238, No Iterations 9
diagonal:  Solving for rho, Initial residual = 0, Final residual = 0, No Iterations 0
time step continuity errors : sum local = 3.88697e-05, global = 2.33301e-06, cumulative = 0.00162697
DICPCG:  Solving for p_rgh, Initial residual = 0.0235195, Final residual = 6.11825e-09, No Iterations 56
diagonal:  Solving for rho, Initial residual = 0, Final residual = 0, No Iterations 0
time step continuity errors : sum local = 3.03116e-10, global = 8.77467e-14, cumulative = 0.00162697
DILUPBiCGStab:  Solving for epsilon, Initial residual = 0.0470941, Final residual = 5.08067e-07, No Iterations 2
DILUPBiCGStab:  Solving for k, Initial residual = 0.0553538, Final residual = 9.15731e-07, No Iterations 2
ExecutionTime = 2.02 s  ClockTime = 3 s

Courant Number mean: 0.312043 max: 1.41647
Time = 86

diagonal:  Solving for rho, Initial residual = 0, Final residual = 0, No Iterations 0
DILUPBiCGStab:  Solving for Ux, Initial residual = 0.0371876, Final residual = 4.00032e-08, No Iterations 2
DILUPBiCGStab:  Solving for Uy, Initial residual = 0.0206417, Final residual = 5.70624e-07, No Iterations 2
DILUPBiCGStab:  Solving for Uz, Initial residual = 0.0371876, Final residual = 4.00032e-08, No Iterations 2
DILUPBiCGStab:  Solving for h, Initial residual = 0.0288579, Final residual = 3.86729e-07, No Iterations 2
DICPCG:  Solving for p_rgh, Initial residual = 0.104065, Final residual = 0.000820367, No Iterations 9
diagonal:  Solving for rho, Initial residual = 0, Final residual = 0, No Iterations 0
time step continuity errors : sum local = 4.06832e-05, global = 2.31387e-06, cumulative = 0.00162929
DICPCG:  Solving for p_rgh, Initial residual = 0.0239303, Final residual = 7.84264e-09, No Iterations 56
diagonal:  Solving for rho, Initial residual = 0, Final residual = 0, No Iterations 0
time step continuity errors : sum local = 3.9085e-10, global = 4.8036e-14, cumulative = 0.00162929
DILUPBiCGStab:  Solving for epsilon, Initial residual = 0.0461042, Final residual = 4.54129e-07, No Iterations 2
DILUPBiCGStab:  Solving for k, Initial residual = 0.053748, Final residual = 8.32086e-07, No Iterations 2
ExecutionTime = 2.06 s  ClockTime = 3 s

Courant Number mean: 0.304134 max: 1.42215
Time = 88

diagonal:  Solving for rho, Initial residual = 0, Final residual = 0, No Iterations 0
DILUPBiCGStab:  Solving for Ux, Initial residual = 0.0386736, Final residual = 9.39936e-07, No Iterations 2
DILUPBiCGStab:  Solving for Uy, Initial residual = 0.0209363, Final residual = 5.04108e-07, No Iterations 2
DILUPBiCGStab:  Solving for Uz, Initial residual = 0.0386736, Final residual = 9.39936e-07, No Iterations 2
DILUPBiCGStab:  Solving for h, Initial residual = 0.0285593, Final residual = 7.87846e-07, No Iterations 2
DICPCG:  Solving for p_rgh, Initial residual = 0.102539, Final residual = 0.000838155, No Iterations 9
diagonal:  Solving for rho, Initial residual = 0, Final residual = 0, No Iterations 0
time step continuity errors : sum local = 4.19838e-05, global = 2.2921e-06, cumulative = 0.00163158
DICPCG:  Solving for p_rgh, Initial residual = 0.0238755, Final residual = 7.33501e-09, No Iterations 56
diagonal:  Solving for rho, Initial residual = 0, Final residual = 0, No Iterations 0
time step continuity errors : sum local = 3.70749e-10, global = 1.85684e-14, cumulative = 0.00163158
DILUPBiCGStab:  Solving for epsilon, Initial residual = 0.0442938, Final residual = 4.00551e-07, No Iterations 2
DILUPBiCGStab:  Solving for k, Initial residual = 0.0523741, Final residual = 7.5793e-07, No Iterations 2
ExecutionTime = 2.1 s  ClockTime = 3 s

Courant Number mean: 0.296829 max: 1.42048
Time = 90

diagonal:  Solving for rho, Initial residual = 0, Final residual = 0, No Iterations 0
DILUPBiCGStab:  Solving for Ux, Initial residual = 0.039865, Final residual = 8.69201e-07, No Iterations 2
DILUPBiCGStab:  Solving for Uy, Initial residual = 0.0210949, Final residual = 4.83924e-07, No Iterations 2
DILUPBiCGStab:  Solving for Uz, Initial residual = 0.039865, Final residual = 8.69201e-07, No Iterations 2
DILUPBiCGStab:  Solving for h, Initial residual = 0.0283183, Final residual = 2.15295e-09, No Iterations 3
DICPCG:  Solving for p_rgh, Initial residual = 0.101102, Final residual = 0.000848096, No Iterations 9
diagonal:  Solving for rho, Initial residual = 0, Final residual = 0, No Iterations 0
time step continuity errors : sum local = 4.27207e-05, global = 2.26606e-06, cumulative = 0.00163384
DICPCG:  Solving for p_rgh, Initial residual = 0.02399, Final residual = 7.03175e-09, No Iterations 52
diagonal:  Solving for rho, Initial residual = 0, Final residual = 0, No Iterations 0
time step continuity errors : sum local = 3.55568e-10, global = -2.06001e-14, cumulative = 0.00163384
DILUPBiCGStab:  Solving for epsilon, Initial residual = 0.0414822, Final residual = 3.53148e-07, No Iterations 2
DILUPBiCGStab:  Solving for k, Initial residual = 0.050698, Final residual = 7.0558e-07, No Iterations 2
ExecutionTime = 2.14 s  ClockTime = 3 s

Courant Number mean: 0.290161 max: 1.41443
Time = 92

diagonal:  Solving for rho, Initial residual = 0, Final residual = 0, No Iterations 0
DILUPBiCGStab:  Solving for Ux, Initial residual = 0.0408528, Final residual = 8.35635e-07, No Iterations 2
DILUPBiCGStab:  Solving for Uy, Initial residual = 0.0212108, Final residual = 4.86915e-07, No Iterations 2
DILUPBiCGStab:  Solving for Uz, Initial residual = 0.0408528, Final residual = 8.35635e-07, No Iterations 2
DILUPBiCGStab:  Solving for h, Initial residual = 0.0279525, Final residual = 4.16037e-07, No Iterations 2
DICPCG:  Solving for p_rgh, Initial residual = 0.0997795, Final residual = 0.000858145, No Iterations 9
diagonal:  Solving for rho, Initial residual = 0, Final residual = 0, No Iterations 0
time step continuity errors : sum local = 4.29102e-05, global = 2.23471e-06, cumulative = 0.00163608
DICPCG:  Solving for p_rgh, Initial residual = 0.0244857, Final residual = 7.84073e-09, No Iterations 50
diagonal:  Solving for rho, Initial residual = 0, Final residual = 0, No Iterations 0
time step continuity errors : sum local = 3.90693e-10, global = -7.03482e-14, cumulative = 0.00163608
DILUPBiCGStab:  Solving for epsilon, Initial residual = 0.0391904, Final residual = 3.28492e-07, No Iterations 2
DILUPBiCGStab:  Solving for k, Initial residual = 0.0490528, Final residual = 6.69313e-07, No Iterations 2
ExecutionTime = 2.18 s  ClockTime = 3 s

Courant Number mean: 0.284082 max: 1.40572
Time = 94

diagonal:  Solving for rho, Initial residual = 0, Final residual = 0, No Iterations 0
DILUPBiCGStab:  Solving for Ux, Initial residual = 0.041423, Final residual = 8.18244e-07, No Iterations 2
DILUPBiCGStab:  Solving for Uy, Initial residual = 0.0212205, Final residual = 4.77424e-07, No Iterations 2
DILUPBiCGStab:  Solving for Uz, Initial residual = 0.041423, Final residual = 8.18244e-07, No Iterations 2
DILUPBiCGStab:  Solving for h, Initial residual = 0.027417, Final residual = 2.52777e-07, No Iterations 2
DICPCG:  Solving for p_rgh, Initial residual = 0.0958181, Final residual = 0.000847163, No Iterations 9
diagonal:  Solving for rho, Initial residual = 0, Final residual = 0, No Iterations 0
time step continuity errors : sum local = 4.17876e-05, global = 2.19691e-06, cumulative = 0.00163828
DICPCG:  Solving for p_rgh, Initial residual = 0.0245953, Final residual = 7.07633e-09, No Iterations 56
diagonal:  Solving for rho, Initial residual = 0, Final residual = 0, No Iterations 0
time step continuity errors : sum local = 3.47284e-10, global = -8.07055e-14, cumulative = 0.00163828
DILUPBiCGStab:  Solving for epsilon, Initial residual = 0.0362571, Final residual = 3.24141e-07, No Iterations 2
DILUPBiCGStab:  Solving for k, Initial residual = 0.047486, Final residual = 6.26274e-07, No Iterations 2
ExecutionTime = 2.22 s  ClockTime = 3 s

Courant Number mean: 0.278566 max: 1.39536
Time = 96

diagonal:  Solving for rho, Initial residual = 0, Final residual = 0, No Iterations 0
DILUPBiCGStab:  Solving for Ux, Initial residual = 0.0415664, Final residual = 8.25964e-07, No Iterations 2
DILUPBiCGStab:  Solving for Uy, Initial residual = 0.0213297, Final residual = 4.53916e-07, No Iterations 2
DILUPBiCGStab:  Solving for Uz, Initial residual = 0.0415664, Final residual = 8.25964e-07, No Iterations 2
DILUPBiCGStab:  Solving for h, Initial residual = 0.0270525, Final residual = 2.42339e-07, No Iterations 2
DICPCG:  Solving for p_rgh, Initial residual = 0.0959525, Final residual = 0.000836362, No Iterations 9
diagonal:  Solving for rho, Initial residual = 0, Final residual = 0, No Iterations 0
time step continuity errors : sum local = 4.04564e-05, global = 2.15361e-06, cumulative = 0.00164043
DICPCG:  Solving for p_rgh, Initial residual = 0.0246504, Final residual = 9.10368e-09, No Iterations 52
diagonal:  Solving for rho, Initial residual = 0, Final residual = 0, No Iterations 0
time step continuity errors : sum local = 4.37705e-10, global = -1.22978e-13, cumulative = 0.00164043
DILUPBiCGStab:  Solving for epsilon, Initial residual = 0.0333621, Final residual = 3.28596e-07, No Iterations 2
DILUPBiCGStab:  Solving for k, Initial residual = 0.0457303, Final residual = 5.90416e-07, No Iterations 2
ExecutionTime = 2.27 s  ClockTime = 4 s

Courant Number mean: 0.273496 max: 1.38448
Time = 98

diagonal:  Solving for rho, Initial residual = 0, Final residual = 0, No Iterations 0
DILUPBiCGStab:  Solving for Ux, Initial residual = 0.0415924, Final residual = 8.32302e-07, No Iterations 2
DILUPBiCGStab:  Solving for Uy, Initial residual = 0.0213985, Final residual = 4.5448e-07, No Iterations 2
DILUPBiCGStab:  Solving for Uz, Initial residual = 0.0415924, Final residual = 8.32302e-07, No Iterations 2
DILUPBiCGStab:  Solving for h, Initial residual = 0.026528, Final residual = 2.73699e-07, No Iterations 2
DICPCG:  Solving for p_rgh, Initial residual = 0.0947813, Final residual = 0.000814875, No Iterations 9
diagonal:  Solving for rho, Initial residual = 0, Final residual = 0, No Iterations 0
time step continuity errors : sum local = 3.86192e-05, global = 2.10583e-06, cumulative = 0.00164253
DICPCG:  Solving for p_rgh, Initial residual = 0.0246893, Final residual = 7.51018e-09, No Iterations 52
diagonal:  Solving for rho, Initial residual = 0, Final residual = 0, No Iterations 0
time step continuity errors : sum local = 3.5203e-10, global = -1.04099e-13, cumulative = 0.00164253
DILUPBiCGStab:  Solving for epsilon, Initial residual = 0.0312463, Final residual = 3.18478e-07, No Iterations 2
DILUPBiCGStab:  Solving for k, Initial residual = 0.0442289, Final residual = 5.61899e-07, No Iterations 2
ExecutionTime = 2.31 s  ClockTime = 4 s

Courant Number mean: 0.268769 max: 1.37292
Time = 100

diagonal:  Solving for rho, Initial residual = 0, Final residual = 0, No Iterations 0
DILUPBiCGStab:  Solving for Ux, Initial residual = 0.041425, Final residual = 8.33459e-07, No Iterations 2
DILUPBiCGStab:  Solving for Uy, Initial residual = 0.0214065, Final residual = 1.191e-07, No Iterations 2
DILUPBiCGStab:  Solving for Uz, Initial residual = 0.041425, Final residual = 8.33458e-07, No Iterations 2
DILUPBiCGStab:  Solving for h, Initial residual = 0.0258982, Final residual = 3.87437e-07, No Iterations 2
DICPCG:  Solving for p_rgh, Initial residual = 0.0982761, Final residual = 0.000790895, No Iterations 9
diagonal:  Solving for rho, Initial residual = 0, Final residual = 0, No Iterations 0
time step continuity errors : sum local = 3.65065e-05, global = 2.0553e-06, cumulative = 0.00164459
DICPCG:  Solving for p_rgh, Initial residual = 0.0248622, Final residual = 7.30695e-09, No Iterations 56
diagonal:  Solving for rho, Initial residual = 0, Final residual = 0, No Iterations 0
time step continuity errors : sum local = 3.33637e-10, global = -6.60257e-14, cumulative = 0.00164459
DILUPBiCGStab:  Solving for epsilon, Initial residual = 0.0291076, Final residual = 3.03395e-07, No Iterations 2
DILUPBiCGStab:  Solving for k, Initial residual = 0.0427627, Final residual = 5.68885e-07, No Iterations 2
ExecutionTime = 2.4 s  ClockTime = 4 s

Courant Number mean: 0.264426 max: 1.36104
Time = 102

diagonal:  Solving for rho, Initial residual = 0, Final residual = 0, No Iterations 0
DILUPBiCGStab:  Solving for Ux, Initial residual = 0.0413312, Final residual = 8.28988e-07, No Iterations 2
DILUPBiCGStab:  Solving for Uy, Initial residual = 0.0216857, Final residual = 9.10733e-07, No Iterations 2
DILUPBiCGStab:  Solving for Uz, Initial residual = 0.0413312, Final residual = 8.28988e-07, No Iterations 2
DILUPBiCGStab:  Solving for h, Initial residual = 0.0253138, Final residual = 6.85358e-07, No Iterations 2
DICPCG:  Solving for p_rgh, Initial residual = 0.0988088, Final residual = 0.000762876, No Iterations 9
diagonal:  Solving for rho, Initial residual = 0, Final residual = 0, No Iterations 0
time step continuity errors : sum local = 3.44078e-05, global = 2.00346e-06, cumulative = 0.00164659
DICPCG:  Solving for p_rgh, Initial residual = 0.0253042, Final residual = 6.69958e-09, No Iterations 56
diagonal:  Solving for rho, Initial residual = 0, Final residual = 0, No Iterations 0
time step continuity errors : sum local = 2.98642e-10, global = -4.73671e-14, cumulative = 0.00164659
DILUPBiCGStab:  Solving for epsilon, Initial residual = 0.0273871, Final residual = 2.92929e-07, No Iterations 2
DILUPBiCGStab:  Solving for k, Initial residual = 0.0413707, Final residual = 6.13072e-07, No Iterations 2
ExecutionTime = 2.45 s  ClockTime = 4 s

Courant Number mean: 0.260512 max: 1.349
Time = 104

diagonal:  Solving for rho, Initial residual = 0, Final residual = 0, No Iterations 0
DILUPBiCGStab:  Solving for Ux, Initial residual = 0.0412112, Final residual = 8.28119e-07, No Iterations 2
DILUPBiCGStab:  Solving for Uy, Initial residual = 0.0219449, Final residual = 5.53657e-07, No Iterations 2
DILUPBiCGStab:  Solving for Uz, Initial residual = 0.0412112, Final residual = 8.28119e-07, No Iterations 2
DILUPBiCGStab:  Solving for h, Initial residual = 0.0246074, Final residual = 6.06108e-07, No Iterations 2
DICPCG:  Solving for p_rgh, Initial residual = 0.102476, Final residual = 0.00070895, No Iterations 9
diagonal:  Solving for rho, Initial residual = 0, Final residual = 0, No Iterations 0
time step continuity errors : sum local = 3.14301e-05, global = 1.95135e-06, cumulative = 0.00164855
DICPCG:  Solving for p_rgh, Initial residual = 0.0249489, Final residual = 6.3179e-09, No Iterations 52
diagonal:  Solving for rho, Initial residual = 0, Final residual = 0, No Iterations 0
time step continuity errors : sum local = 2.79055e-10, global = -3.13401e-14, cumulative = 0.00164855
DILUPBiCGStab:  Solving for epsilon, Initial residual = 0.0259629, Final residual = 2.85265e-07, No Iterations 2
DILUPBiCGStab:  Solving for k, Initial residual = 0.0400773, Final residual = 6.87693e-07, No Iterations 2
ExecutionTime = 2.48 s  ClockTime = 4 s

Courant Number mean: 0.256924 max: 1.33685
Time = 106

diagonal:  Solving for rho, Initial residual = 0, Final residual = 0, No Iterations 0
DILUPBiCGStab:  Solving for Ux, Initial residual = 0.0409681, Final residual = 8.60011e-07, No Iterations 2
DILUPBiCGStab:  Solving for Uy, Initial residual = 0.0222289, Final residual = 4.27376e-07, No Iterations 2
DILUPBiCGStab:  Solving for Uz, Initial residual = 0.0409681, Final residual = 8.6001e-07, No Iterations 2
DILUPBiCGStab:  Solving for h, Initial residual = 0.0239107, Final residual = 2.9358e-07, No Iterations 2
DICPCG:  Solving for p_rgh, Initial residual = 0.100218, Final residual = 0.000663672, No Iterations 9
diagonal:  Solving for rho, Initial residual = 0, Final residual = 0, No Iterations 0
time step continuity errors : sum local = 2.92213e-05, global = 1.90046e-06, cumulative = 0.00165045
DICPCG:  Solving for p_rgh, Initial residual = 0.0247271, Final residual = 4.7867e-09, No Iterations 52
diagonal:  Solving for rho, Initial residual = 0, Final residual = 0, No Iterations 0
time step continuity errors : sum local = 2.10446e-10, global = -1.36734e-14, cumulative = 0.00165045
DILUPBiCGStab:  Solving for epsilon, Initial residual = 0.0246014, Final residual = 2.75585e-07, No Iterations 2
DILUPBiCGStab:  Solving for k, Initial residual = 0.0387734, Final residual = 7.72222e-07, No Iterations 2
ExecutionTime = 2.53 s  ClockTime = 4 s

Courant Number mean: 0.253704 max: 1.32477
Time = 108

diagonal:  Solving for rho, Initial residual = 0, Final residual = 0, No Iterations 0
DILUPBiCGStab:  Solving for Ux, Initial residual = 0.0406355, Final residual = 8.83687e-07, No Iterations 2
DILUPBiCGStab:  Solving for Uy, Initial residual = 0.0227215, Final residual = 3.85358e-07, No Iterations 2
DILUPBiCGStab:  Solving for Uz, Initial residual = 0.0406355, Final residual = 8.83687e-07, No Iterations 2
DILUPBiCGStab:  Solving for h, Initial residual = 0.0232873, Final residual = 1.2805e-07, No Iterations 2
DICPCG:  Solving for p_rgh, Initial residual = 0.102557, Final residual = 0.000628809, No Iterations 9
diagonal:  Solving for rho, Initial residual = 0, Final residual = 0, No Iterations 0
time step continuity errors : sum local = 2.76887e-05, global = 1.85135e-06, cumulative = 0.0016523
DICPCG:  Solving for p_rgh, Initial residual = 0.0241484, Final residual = 6.42939e-09, No Iterations 56
diagonal:  Solving for rho, Initial residual = 0, Final residual = 0, No Iterations 0
time step continuity errors : sum local = 2.84318e-10, global = 3.62597e-14, cumulative = 0.0016523
DILUPBiCGStab:  Solving for epsilon, Initial residual = 0.023412, Final residual = 2.68765e-07, No Iterations 2
DILUPBiCGStab:  Solving for k, Initial residual = 0.0375521, Final residual = 8.40268e-07, No Iterations 2
ExecutionTime = 2.57 s  ClockTime = 4 s

Courant Number mean: 0.250857 max: 1.31275
Time = 110

diagonal:  Solving for rho, Initial residual = 0, Final residual = 0, No Iterations 0
DILUPBiCGStab:  Solving for Ux, Initial residual = 0.0402288, Final residual = 8.63847e-07, No Iterations 2
DILUPBiCGStab:  Solving for Uy, Initial residual = 0.0230735, Final residual = 8.52684e-07, No Iterations 2
DILUPBiCGStab:  Solving for Uz, Initial residual = 0.0402288, Final residual = 8.63847e-07, No Iterations 2
DILUPBiCGStab:  Solving for h, Initial residual = 0.0226425, Final residual = 6.00729e-08, No Iterations 2
DICPCG:  Solving for p_rgh, Initial residual = 0.101159, Final residual = 0.000588518, No Iterations 9
diagonal:  Solving for rho, Initial residual = 0, Final residual = 0, No Iterations 0
time step continuity errors : sum local = 2.59883e-05, global = 1.80493e-06, cumulative = 0.0016541
DICPCG:  Solving for p_rgh, Initial residual = 0.0237847, Final residual = 8.42171e-09, No Iterations 52
diagonal:  Solving for rho, Initial residual = 0, Final residual = 0, No Iterations 0
time step continuity errors : sum local = 3.72428e-10, global = 6.40461e-14, cumulative = 0.0016541
DILUPBiCGStab:  Solving for epsilon, Initial residual = 0.0223866, Final residual = 2.65641e-07, No Iterations 2
DILUPBiCGStab:  Solving for k, Initial residual = 0.0364598, Final residual = 8.9741e-07, No Iterations 2
ExecutionTime = 2.62 s  ClockTime = 4 s

Courant Number mean: 0.248039 max: 1.30079
Time = 112

diagonal:  Solving for rho, Initial residual = 0, Final residual = 0, No Iterations 0
[...]
DILUPBiCGStab:  Solving for Ux, Initial residual = 0.000393607, Final residual = 4.85072e-07, No Iterations 1
DILUPBiCGStab:  Solving for Uy, Initial residual = 0.000512252, Final residual = 7.94318e-07, No Iterations 1
DILUPBiCGStab:  Solving for Uz, Initial residual = 0.000393606, Final residual = 4.85112e-07, No Iterations 1
DILUPBiCGStab:  Solving for h, Initial residual = 0.000947621, Final residual = 5.88151e-09, No Iterations 1
DICPCG:  Solving for p_rgh, Initial residual = 0.000432021, Final residual = 3.80979e-06, No Iterations 7
diagonal:  Solving for rho, Initial residual = 0, Final residual = 0, No Iterations 0
time step continuity errors : sum local = 1.04808e-07, global = -5.46974e-08, cumulative = 0.00177922
DICPCG:  Solving for p_rgh, Initial residual = 3.30216e-05, Final residual = 9.16017e-09, No Iterations 44
diagonal:  Solving for rho, Initial residual = 0, Final residual = 0, No Iterations 0
time step continuity errors : sum local = 2.5199e-10, global = 7.94051e-14, cumulative = 0.00177922
DILUPBiCGStab:  Solving for epsilon, Initial residual = 8.84069e-05, Final residual = 1.13779e-07, No Iterations 1
DILUPBiCGStab:  Solving for k, Initial residual = 0.000258722, Final residual = 5.17364e-07, No Iterations 1
ExecutionTime = 41.68 s  ClockTime = 55 s

Courant Number mean: 0.0794792 max: 0.596724
Time = 1976

diagonal:  Solving for rho, Initial residual = 0, Final residual = 0, No Iterations 0
DILUPBiCGStab:  Solving for Ux, Initial residual = 0.000392089, Final residual = 4.79592e-07, No Iterations 1
DILUPBiCGStab:  Solving for Uy, Initial residual = 0.00050755, Final residual = 7.89512e-07, No Iterations 1
DILUPBiCGStab:  Solving for Uz, Initial residual = 0.000392089, Final residual = 4.79614e-07, No Iterations 1
DILUPBiCGStab:  Solving for h, Initial residual = 0.000943239, Final residual = 5.68726e-09, No Iterations 1
DICPCG:  Solving for p_rgh, Initial residual = 0.000434971, Final residual = 3.85897e-06, No Iterations 7
diagonal:  Solving for rho, Initial residual = 0, Final residual = 0, No Iterations 0
time step continuity errors : sum local = 1.06157e-07, global = -5.45362e-08, cumulative = 0.00177917
DICPCG:  Solving for p_rgh, Initial residual = 3.30654e-05, Final residual = 6.25418e-09, No Iterations 41
diagonal:  Solving for rho, Initial residual = 0, Final residual = 0, No Iterations 0
time step continuity errors : sum local = 1.71939e-10, global = 1.53124e-14, cumulative = 0.00177917
DILUPBiCGStab:  Solving for epsilon, Initial residual = 8.89015e-05, Final residual = 1.1973e-07, No Iterations 1
DILUPBiCGStab:  Solving for k, Initial residual = 0.000254995, Final residual = 4.97962e-07, No Iterations 1
ExecutionTime = 41.72 s  ClockTime = 55 s

Courant Number mean: 0.0794567 max: 0.596711
Time = 1978

diagonal:  Solving for rho, Initial residual = 0, Final residual = 0, No Iterations 0
DILUPBiCGStab:  Solving for Ux, Initial residual = 0.000390393, Final residual = 4.7446e-07, No Iterations 1
DILUPBiCGStab:  Solving for Uy, Initial residual = 0.000503126, Final residual = 7.86157e-07, No Iterations 1
DILUPBiCGStab:  Solving for Uz, Initial residual = 0.000390394, Final residual = 4.7442e-07, No Iterations 1
DILUPBiCGStab:  Solving for h, Initial residual = 0.000938806, Final residual = 5.49246e-09, No Iterations 1
DICPCG:  Solving for p_rgh, Initial residual = 0.000433913, Final residual = 3.94621e-06, No Iterations 7
diagonal:  Solving for rho, Initial residual = 0, Final residual = 0, No Iterations 0
time step continuity errors : sum local = 1.08554e-07, global = -5.43743e-08, cumulative = 0.00177912
DICPCG:  Solving for p_rgh, Initial residual = 3.29873e-05, Final residual = 8.54611e-09, No Iterations 45
diagonal:  Solving for rho, Initial residual = 0, Final residual = 0, No Iterations 0
time step continuity errors : sum local = 2.352e-10, global = 1.02934e-14, cumulative = 0.00177912
DILUPBiCGStab:  Solving for epsilon, Initial residual = 8.99221e-05, Final residual = 1.24405e-07, No Iterations 1
DILUPBiCGStab:  Solving for k, Initial residual = 0.000251443, Final residual = 4.81357e-07, No Iterations 1
ExecutionTime = 41.76 s  ClockTime = 55 s

Courant Number mean: 0.0794351 max: 0.59669
Time = 1980

diagonal:  Solving for rho, Initial residual = 0, Final residual = 0, No Iterations 0
DILUPBiCGStab:  Solving for Ux, Initial residual = 0.000388975, Final residual = 4.70348e-07, No Iterations 1
DILUPBiCGStab:  Solving for Uy, Initial residual = 0.000499063, Final residual = 7.82347e-07, No Iterations 1
DILUPBiCGStab:  Solving for Uz, Initial residual = 0.000388975, Final residual = 4.70324e-07, No Iterations 1
DILUPBiCGStab:  Solving for h, Initial residual = 0.00093399, Final residual = 5.30141e-09, No Iterations 1
DICPCG:  Solving for p_rgh, Initial residual = 0.000434894, Final residual = 3.99018e-06, No Iterations 7
diagonal:  Solving for rho, Initial residual = 0, Final residual = 0, No Iterations 0
time step continuity errors : sum local = 1.0976e-07, global = -5.4212e-08, cumulative = 0.00177906
DICPCG:  Solving for p_rgh, Initial residual = 3.29445e-05, Final residual = 7.46024e-09, No Iterations 42
diagonal:  Solving for rho, Initial residual = 0, Final residual = 0, No Iterations 0
time step continuity errors : sum local = 2.05352e-10, global = 1.59328e-14, cumulative = 0.00177906
DILUPBiCGStab:  Solving for epsilon, Initial residual = 9.09554e-05, Final residual = 1.27936e-07, No Iterations 1
DILUPBiCGStab:  Solving for k, Initial residual = 0.00024815, Final residual = 4.65703e-07, No Iterations 1
ExecutionTime = 41.79 s  ClockTime = 55 s

Courant Number mean: 0.0794145 max: 0.596661
Time = 1982

diagonal:  Solving for rho, Initial residual = 0, Final residual = 0, No Iterations 0
DILUPBiCGStab:  Solving for Ux, Initial residual = 0.000387324, Final residual = 4.6641e-07, No Iterations 1
DILUPBiCGStab:  Solving for Uy, Initial residual = 0.000495626, Final residual = 7.80725e-07, No Iterations 1
DILUPBiCGStab:  Solving for Uz, Initial residual = 0.000387322, Final residual = 4.66447e-07, No Iterations 1
DILUPBiCGStab:  Solving for h, Initial residual = 0.000929102, Final residual = 5.1201e-09, No Iterations 1
DICPCG:  Solving for p_rgh, Initial residual = 0.000435518, Final residual = 4.07402e-06, No Iterations 7
diagonal:  Solving for rho, Initial residual = 0, Final residual = 0, No Iterations 0
time step continuity errors : sum local = 1.12062e-07, global = -5.40507e-08, cumulative = 0.00177901
DICPCG:  Solving for p_rgh, Initial residual = 3.28243e-05, Final residual = 9.03284e-09, No Iterations 45
diagonal:  Solving for rho, Initial residual = 0, Final residual = 0, No Iterations 0
time step continuity errors : sum local = 2.48522e-10, global = -1.77995e-14, cumulative = 0.00177901
DILUPBiCGStab:  Solving for epsilon, Initial residual = 9.21453e-05, Final residual = 1.30775e-07, No Iterations 1
DILUPBiCGStab:  Solving for k, Initial residual = 0.000245169, Final residual = 4.51824e-07, No Iterations 1
ExecutionTime = 41.83 s  ClockTime = 55 s

Courant Number mean: 0.0793948 max: 0.596625
Time = 1984

diagonal:  Solving for rho, Initial residual = 0, Final residual = 0, No Iterations 0
DILUPBiCGStab:  Solving for Ux, Initial residual = 0.00038583, Final residual = 4.62854e-07, No Iterations 1
DILUPBiCGStab:  Solving for Uy, Initial residual = 0.000492176, Final residual = 7.78816e-07, No Iterations 1
DILUPBiCGStab:  Solving for Uz, Initial residual = 0.000385829, Final residual = 4.62877e-07, No Iterations 1
DILUPBiCGStab:  Solving for h, Initial residual = 0.000924312, Final residual = 4.94403e-09, No Iterations 1
DICPCG:  Solving for p_rgh, Initial residual = 0.000436091, Final residual = 4.2623e-06, No Iterations 7
diagonal:  Solving for rho, Initial residual = 0, Final residual = 0, No Iterations 0
time step continuity errors : sum local = 1.17238e-07, global = -5.38887e-08, cumulative = 0.00177895
DICPCG:  Solving for p_rgh, Initial residual = 3.28533e-05, Final residual = 7.68702e-09, No Iterations 42
diagonal:  Solving for rho, Initial residual = 0, Final residual = 0, No Iterations 0
time step continuity errors : sum local = 2.11335e-10, global = 1.0036e-15, cumulative = 0.00177895
DILUPBiCGStab:  Solving for epsilon, Initial residual = 9.35749e-05, Final residual = 1.33085e-07, No Iterations 1
DILUPBiCGStab:  Solving for k, Initial residual = 0.000242572, Final residual = 4.39399e-07, No Iterations 1
ExecutionTime = 41.87 s  ClockTime = 55 s

Courant Number mean: 0.0793758 max: 0.596582
Time = 1986

diagonal:  Solving for rho, Initial residual = 0, Final residual = 0, No Iterations 0
DILUPBiCGStab:  Solving for Ux, Initial residual = 0.000384424, Final residual = 4.59333e-07, No Iterations 1
DILUPBiCGStab:  Solving for Uy, Initial residual = 0.00048752, Final residual = 7.75058e-07, No Iterations 1
DILUPBiCGStab:  Solving for Uz, Initial residual = 0.000384425, Final residual = 4.59317e-07, No Iterations 1
DILUPBiCGStab:  Solving for h, Initial residual = 0.000919356, Final residual = 4.78438e-09, No Iterations 1
DICPCG:  Solving for p_rgh, Initial residual = 0.000438741, Final residual = 4.22083e-06, No Iterations 7
diagonal:  Solving for rho, Initial residual = 0, Final residual = 0, No Iterations 0
time step continuity errors : sum local = 1.16096e-07, global = -5.37289e-08, cumulative = 0.0017789
DICPCG:  Solving for p_rgh, Initial residual = 3.26919e-05, Final residual = 7.89086e-09, No Iterations 43
diagonal:  Solving for rho, Initial residual = 0, Final residual = 0, No Iterations 0
time step continuity errors : sum local = 2.17031e-10, global = -3.72894e-16, cumulative = 0.0017789
DILUPBiCGStab:  Solving for epsilon, Initial residual = 9.52886e-05, Final residual = 1.34994e-07, No Iterations 1
DILUPBiCGStab:  Solving for k, Initial residual = 0.000240029, Final residual = 4.2921e-07, No Iterations 1
ExecutionTime = 41.9 s  ClockTime = 55 s

Courant Number mean: 0.0793579 max: 0.596533
Time = 1988

diagonal:  Solving for rho, Initial residual = 0, Final residual = 0, No Iterations 0
DILUPBiCGStab:  Solving for Ux, Initial residual = 0.000382166, Final residual = 4.5593e-07, No Iterations 1
DILUPBiCGStab:  Solving for Uy, Initial residual = 0.000483957, Final residual = 7.7316e-07, No Iterations 1
DILUPBiCGStab:  Solving for Uz, Initial residual = 0.000382169, Final residual = 4.55824e-07, No Iterations 1
DILUPBiCGStab:  Solving for h, Initial residual = 0.00091415, Final residual = 4.65191e-09, No Iterations 1
DICPCG:  Solving for p_rgh, Initial residual = 0.000441783, Final residual = 4.34784e-06, No Iterations 7
diagonal:  Solving for rho, Initial residual = 0, Final residual = 0, No Iterations 0
time step continuity errors : sum local = 1.19588e-07, global = -5.35706e-08, cumulative = 0.00177885
DICPCG:  Solving for p_rgh, Initial residual = 3.2651e-05, Final residual = 9.88438e-09, No Iterations 46
diagonal:  Solving for rho, Initial residual = 0, Final residual = 0, No Iterations 0
time step continuity errors : sum local = 2.71834e-10, global = -5.30642e-15, cumulative = 0.00177885
DILUPBiCGStab:  Solving for epsilon, Initial residual = 9.71552e-05, Final residual = 1.36857e-07, No Iterations 1
DILUPBiCGStab:  Solving for k, Initial residual = 0.000237751, Final residual = 4.21019e-07, No Iterations 1
ExecutionTime = 41.94 s  ClockTime = 55 s

Courant Number mean: 0.0793407 max: 0.596476
Time = 1990

diagonal:  Solving for rho, Initial residual = 0, Final residual = 0, No Iterations 0
DILUPBiCGStab:  Solving for Ux, Initial residual = 0.000379988, Final residual = 4.52282e-07, No Iterations 1
DILUPBiCGStab:  Solving for Uy, Initial residual = 0.000479418, Final residual = 7.703e-07, No Iterations 1
DILUPBiCGStab:  Solving for Uz, Initial residual = 0.000379988, Final residual = 4.52265e-07, No Iterations 1
DILUPBiCGStab:  Solving for h, Initial residual = 0.00090886, Final residual = 4.53196e-09, No Iterations 1
DICPCG:  Solving for p_rgh, Initial residual = 0.000440643, Final residual = 4.35351e-06, No Iterations 7
diagonal:  Solving for rho, Initial residual = 0, Final residual = 0, No Iterations 0
time step continuity errors : sum local = 1.19744e-07, global = -5.34156e-08, cumulative = 0.00177879
DICPCG:  Solving for p_rgh, Initial residual = 3.24548e-05, Final residual = 8.71043e-09, No Iterations 46
diagonal:  Solving for rho, Initial residual = 0, Final residual = 0, No Iterations 0
time step continuity errors : sum local = 2.39641e-10, global = -9.15346e-15, cumulative = 0.00177879
DILUPBiCGStab:  Solving for epsilon, Initial residual = 9.92041e-05, Final residual = 1.38649e-07, No Iterations 1
DILUPBiCGStab:  Solving for k, Initial residual = 0.000235596, Final residual = 4.16039e-07, No Iterations 1
ExecutionTime = 41.98 s  ClockTime = 55 s

Courant Number mean: 0.0793242 max: 0.596413
Time = 1992

diagonal:  Solving for rho, Initial residual = 0, Final residual = 0, No Iterations 0
DILUPBiCGStab:  Solving for Ux, Initial residual = 0.000377853, Final residual = 4.49414e-07, No Iterations 1
DILUPBiCGStab:  Solving for Uy, Initial residual = 0.000475094, Final residual = 7.6806e-07, No Iterations 1
DILUPBiCGStab:  Solving for Uz, Initial residual = 0.000377852, Final residual = 4.49439e-07, No Iterations 1
DILUPBiCGStab:  Solving for h, Initial residual = 0.000903443, Final residual = 4.42345e-09, No Iterations 1
DICPCG:  Solving for p_rgh, Initial residual = 0.000443482, Final residual = 4.40305e-06, No Iterations 7
diagonal:  Solving for rho, Initial residual = 0, Final residual = 0, No Iterations 0
time step continuity errors : sum local = 1.21107e-07, global = -5.32638e-08, cumulative = 0.00177874
DICPCG:  Solving for p_rgh, Initial residual = 3.24342e-05, Final residual = 9.5295e-09, No Iterations 42
diagonal:  Solving for rho, Initial residual = 0, Final residual = 0, No Iterations 0
time step continuity errors : sum local = 2.62194e-10, global = 1.67424e-14, cumulative = 0.00177874
DILUPBiCGStab:  Solving for epsilon, Initial residual = 0.000101277, Final residual = 1.40533e-07, No Iterations 1
DILUPBiCGStab:  Solving for k, Initial residual = 0.00023384, Final residual = 4.15077e-07, No Iterations 1
ExecutionTime = 42.02 s  ClockTime = 55 s

Courant Number mean: 0.0793085 max: 0.596344
Time = 1994

diagonal:  Solving for rho, Initial residual = 0, Final residual = 0, No Iterations 0
DILUPBiCGStab:  Solving for Ux, Initial residual = 0.000375799, Final residual = 4.47341e-07, No Iterations 1
DILUPBiCGStab:  Solving for Uy, Initial residual = 0.000470683, Final residual = 7.66542e-07, No Iterations 1
DILUPBiCGStab:  Solving for Uz, Initial residual = 0.000375793, Final residual = 4.47475e-07, No Iterations 1
DILUPBiCGStab:  Solving for h, Initial residual = 0.000897969, Final residual = 4.32101e-09, No Iterations 1
DICPCG:  Solving for p_rgh, Initial residual = 0.000441348, Final residual = 4.11262e-06, No Iterations 8
diagonal:  Solving for rho, Initial residual = 0, Final residual = 0, No Iterations 0
time step continuity errors : sum local = 1.1312e-07, global = -5.31149e-08, cumulative = 0.00177869
DICPCG:  Solving for p_rgh, Initial residual = 3.14914e-05, Final residual = 8.09178e-09, No Iterations 45
diagonal:  Solving for rho, Initial residual = 0, Final residual = 0, No Iterations 0
time step continuity errors : sum local = 2.22572e-10, global = -2.06509e-14, cumulative = 0.00177869
DILUPBiCGStab:  Solving for epsilon, Initial residual = 0.000103319, Final residual = 1.42365e-07, No Iterations 1
DILUPBiCGStab:  Solving for k, Initial residual = 0.000232549, Final residual = 4.15566e-07, No Iterations 1
ExecutionTime = 42.06 s  ClockTime = 56 s

Courant Number mean: 0.0792938 max: 0.596269
Time = 1996

diagonal:  Solving for rho, Initial residual = 0, Final residual = 0, No Iterations 0
DILUPBiCGStab:  Solving for Ux, Initial residual = 0.000373559, Final residual = 4.45259e-07, No Iterations 1
DILUPBiCGStab:  Solving for Uy, Initial residual = 0.000466076, Final residual = 7.65107e-07, No Iterations 1
DILUPBiCGStab:  Solving for Uz, Initial residual = 0.000373559, Final residual = 4.45261e-07, No Iterations 1
DILUPBiCGStab:  Solving for h, Initial residual = 0.000892384, Final residual = 4.22461e-09, No Iterations 1
DICPCG:  Solving for p_rgh, Initial residual = 0.000445979, Final residual = 4.10163e-06, No Iterations 8
diagonal:  Solving for rho, Initial residual = 0, Final residual = 0, No Iterations 0
time step continuity errors : sum local = 1.1282e-07, global = -5.29704e-08, cumulative = 0.00177863
DICPCG:  Solving for p_rgh, Initial residual = 3.14085e-05, Final residual = 8.30351e-09, No Iterations 45
diagonal:  Solving for rho, Initial residual = 0, Final residual = 0, No Iterations 0
time step continuity errors : sum local = 2.28348e-10, global = -3.97189e-14, cumulative = 0.00177863
DILUPBiCGStab:  Solving for epsilon, Initial residual = 0.000105307, Final residual = 1.43968e-07, No Iterations 1
DILUPBiCGStab:  Solving for k, Initial residual = 0.000231752, Final residual = 4.17789e-07, No Iterations 1
ExecutionTime = 42.11 s  ClockTime = 56 s

Courant Number mean: 0.07928 max: 0.596189
Time = 1998

diagonal:  Solving for rho, Initial residual = 0, Final residual = 0, No Iterations 0
DILUPBiCGStab:  Solving for Ux, Initial residual = 0.000371415, Final residual = 4.42967e-07, No Iterations 1
DILUPBiCGStab:  Solving for Uy, Initial residual = 0.00046065, Final residual = 7.61988e-07, No Iterations 1
DILUPBiCGStab:  Solving for Uz, Initial residual = 0.000371415, Final residual = 4.42957e-07, No Iterations 1
DILUPBiCGStab:  Solving for h, Initial residual = 0.000886624, Final residual = 4.1379e-09, No Iterations 1
DICPCG:  Solving for p_rgh, Initial residual = 0.000447207, Final residual = 4.17411e-06, No Iterations 8
diagonal:  Solving for rho, Initial residual = 0, Final residual = 0, No Iterations 0
time step continuity errors : sum local = 1.14817e-07, global = -5.28306e-08, cumulative = 0.00177858
DICPCG:  Solving for p_rgh, Initial residual = 3.11982e-05, Final residual = 8.41194e-09, No Iterations 41
diagonal:  Solving for rho, Initial residual = 0, Final residual = 0, No Iterations 0
time step continuity errors : sum local = 2.31413e-10, global = -3.36852e-14, cumulative = 0.00177858
DILUPBiCGStab:  Solving for epsilon, Initial residual = 0.000107283, Final residual = 1.45462e-07, No Iterations 1
DILUPBiCGStab:  Solving for k, Initial residual = 0.00023117, Final residual = 4.2062e-07, No Iterations 1
ExecutionTime = 42.14 s  ClockTime = 56 s

Courant Number mean: 0.079267 max: 0.596103
Time = 2000

diagonal:  Solving for rho, Initial residual = 0, Final residual = 0, No Iterations 0
DILUPBiCGStab:  Solving for Ux, Initial residual = 0.000369003, Final residual = 4.40671e-07, No Iterations 1
DILUPBiCGStab:  Solving for Uy, Initial residual = 0.000456128, Final residual = 7.58038e-07, No Iterations 1
DILUPBiCGStab:  Solving for Uz, Initial residual = 0.000369005, Final residual = 4.40641e-07, No Iterations 1
DILUPBiCGStab:  Solving for h, Initial residual = 0.000881113, Final residual = 4.0637e-09, No Iterations 1
DICPCG:  Solving for p_rgh, Initial residual = 0.000445106, Final residual = 4.34417e-06, No Iterations 8
diagonal:  Solving for rho, Initial residual = 0, Final residual = 0, No Iterations 0
time step continuity errors : sum local = 1.19499e-07, global = -5.26934e-08, cumulative = 0.00177853
DICPCG:  Solving for p_rgh, Initial residual = 3.10954e-05, Final residual = 9.0087e-09, No Iterations 41
diagonal:  Solving for rho, Initial residual = 0, Final residual = 0, No Iterations 0
time step continuity errors : sum local = 2.47914e-10, global = 3.60455e-14, cumulative = 0.00177853
DILUPBiCGStab:  Solving for epsilon, Initial residual = 0.00010921, Final residual = 1.46758e-07, No Iterations 1
DILUPBiCGStab:  Solving for k, Initial residual = 0.000230785, Final residual = 4.24163e-07, No Iterations 1
ExecutionTime = 42.22 s  ClockTime = 56 s

End

