/*---------------------------------------------------------------------------*\
  =========                 |
  \\      /  F ield         | OpenFOAM: The Open Source CFD Toolbox
   \\    /   O peration     | Website:  https://openfoam.org
    \\  /    A nd           | Version:  9
     \\/     M anipulation  |
\*---------------------------------------------------------------------------*/
Build  : 9-a0f1846504f2
Exec   : interFoam
Date   : Nov 17 2021
Time   : 14:36:40
Host   : "tw-Satellite-C45t-A"
PID    : 15115
I/O    : uncollated
Case   : /home/tw/OpenFOAM/tw-9/run/curso-cfd/04-damBreak/damBreak
nProcs : 1
sigFpe : Enabling floating point exception trapping (FOAM_SIGFPE).
fileModificationChecking : Monitoring run-time modified files using timeStampMaster (fileModificationSkew 10)
allowSystemOperations : Allowing user-supplied system call operations

// * * * * * * * * * * * * * * * * * * * * * * * * * * * * * * * * * * * * * //
Create time

Create mesh for time = 0


PIMPLE: No convergence criteria found


PIMPLE: Operating solver in transient mode with 1 outer corrector
PIMPLE: Operating solver in PISO mode


Reading field p_rgh

Reading field U

Reading/calculating face flux field phi

Reading transportProperties

Selecting incompressible transport model Newtonian
Selecting incompressible transport model Newtonian
No phase change: phaseChangeProperties not found
Selecting phaseChange model none
Selecting turbulence model type RAS
Selecting RAS turbulence model kEpsilon
RAS
{
    model           kEpsilon;
    turbulence      on;
    printCoeffs     on;
    Cmu             0.09;
    C1              1.44;
    C2              1.92;
    C3              0;
    sigmak          1;
    sigmaEps        1.3;
}


Reading g

Reading hRef
Calculating field g.h

No MRF models present

No fvModels present
No fvConstraints present
DICPCG:  Solving for pcorr, Initial residual = 0, Final residual = 0, No Iterations 0
time step continuity errors : sum local = 0, global = 0, cumulative = 0
Courant Number mean: 0 max: 0

Starting time loop

Courant Number mean: 0 max: 0
Interface Courant Number mean: 0 max: 0
deltaT = 0.00119048
Time = 0.00119048

smoothSolver:  Solving for alpha.water, Initial residual = 0, Final residual = 0, No Iterations 0
Phase-1 volume fraction = 0.130194  Min(alpha.water) = 0  Max(alpha.water) = 1
MULES: Correcting alpha.water
MULES: Correcting alpha.water
Phase-1 volume fraction = 0.130194  Min(alpha.water) = 0  Max(alpha.water) = 1
DICPCG:  Solving for p_rgh, Initial residual = 1, Final residual = 0.0421424, No Iterations 3
time step continuity errors : sum local = 0.000350396, global = 5.70626e-10, cumulative = 5.70626e-10
DICPCG:  Solving for p_rgh, Initial residual = 0.0045254, Final residual = 0.000197618, No Iterations 12
time step continuity errors : sum local = 1.63273e-05, global = 6.25128e-06, cumulative = 6.25185e-06
DICPCG:  Solving for p_rgh, Initial residual = 0.000284297, Final residual = 6.57392e-08, No Iterations 52
time step continuity errors : sum local = 1.13291e-08, global = -1.33749e-09, cumulative = 6.25051e-06
smoothSolver:  Solving for epsilon, Initial residual = 0.0207432, Final residual = 2.79088e-07, No Iterations 3
smoothSolver:  Solving for k, Initial residual = 1, Final residual = 2.02666e-07, No Iterations 5
ExecutionTime = 0.06 s  ClockTime = 0 s

Courant Number mean: 0.000573244 max: 0.00515159
Interface Courant Number mean: 0 max: 0
deltaT = 0.00139456
Time = 0.00258503

smoothSolver:  Solving for alpha.water, Initial residual = 3.96635e-05, Final residual = 2.63464e-11, No Iterations 1
Phase-1 volume fraction = 0.130194  Min(alpha.water) = 0  Max(alpha.water) = 1
MULES: Correcting alpha.water
MULES: Correcting alpha.water
Phase-1 volume fraction = 0.130194  Min(alpha.water) = -4.42242e-27  Max(alpha.water) = 1
DICPCG:  Solving for p_rgh, Initial residual = 0.00178225, Final residual = 7.28451e-05, No Iterations 3
time step continuity errors : sum local = 1.43225e-05, global = -1.58199e-06, cumulative = 4.66852e-06
DICPCG:  Solving for p_rgh, Initial residual = 0.000118448, Final residual = 5.59665e-06, No Iterations 29
time step continuity errors : sum local = 1.10081e-06, global = 8.96203e-08, cumulative = 4.75814e-06
DICPCG:  Solving for p_rgh, Initial residual = 2.28109e-05, Final residual = 8.72753e-08, No Iterations 46
time step continuity errors : sum local = 1.71611e-08, global = -2.01504e-10, cumulative = 4.75794e-06
smoothSolver:  Solving for epsilon, Initial residual = 0.00336347, Final residual = 8.00192e-07, No Iterations 2
smoothSolver:  Solving for k, Initial residual = 0.44107, Final residual = 5.75699e-07, No Iterations 4
ExecutionTime = 0.09 s  ClockTime = 0 s

Courant Number mean: 0.00143929 max: 0.0117613
Interface Courant Number mean: 0 max: 0
deltaT = 0.001635
Time = 0.00422003

smoothSolver:  Solving for alpha.water, Initial residual = 8.58874e-05, Final residual = 4.16062e-10, No Iterations 1
Phase-1 volume fraction = 0.130194  Min(alpha.water) = 0  Max(alpha.water) = 1
MULES: Correcting alpha.water
MULES: Correcting alpha.water
Phase-1 volume fraction = 0.130194  Min(alpha.water) = -5.42574e-24  Max(alpha.water) = 1
DICPCG:  Solving for p_rgh, Initial residual = 0.00309047, Final residual = 0.000150154, No Iterations 1
time step continuity errors : sum local = 3.7618e-05, global = 1.03153e-07, cumulative = 4.86109e-06
DICPCG:  Solving for p_rgh, Initial residual = 0.000180431, Final residual = 8.20686e-06, No Iterations 11
time step continuity errors : sum local = 2.05686e-06, global = 5.44446e-07, cumulative = 5.40554e-06
DICPCG:  Solving for p_rgh, Initial residual = 3.83716e-05, Final residual = 8.56544e-08, No Iterations 42
time step continuity errors : sum local = 2.16073e-08, global = -4.44655e-10, cumulative = 5.40509e-06
smoothSolver:  Solving for epsilon, Initial residual = 0.00345089, Final residual = 6.41033e-08, No Iterations 3
smoothSolver:  Solving for k, Initial residual = 0.249825, Final residual = 7.56158e-07, No Iterations 4
ExecutionTime = 0.11 s  ClockTime = 0 s

Courant Number mean: 0.00275028 max: 0.0226988
Interface Courant Number mean: 9.38855e-06 max: 0.0208679
deltaT = 0.0019075
Time = 0.00612753

smoothSolver:  Solving for alpha.water, Initial residual = 0.000155695, Final residual = 2.75966e-09, No Iterations 1
Phase-1 volume fraction = 0.130194  Min(alpha.water) = 0  Max(alpha.water) = 1
MULES: Correcting alpha.water
MULES: Correcting alpha.water
Phase-1 volume fraction = 0.130194  Min(alpha.water) = -2.42987e-21  Max(alpha.water) = 1
DICPCG:  Solving for p_rgh, Initial residual = 0.00474314, Final residual = 0.000208512, No Iterations 1
time step continuity errors : sum local = 6.66209e-05, global = 1.85407e-09, cumulative = 5.40694e-06
DICPCG:  Solving for p_rgh, Initial residual = 0.000246134, Final residual = 1.10218e-05, No Iterations 10
time step continuity errors : sum local = 3.52417e-06, global = 8.08071e-07, cumulative = 6.21502e-06
DICPCG:  Solving for p_rgh, Initial residual = 5.27005e-05, Final residual = 7.85559e-08, No Iterations 37
time step continuity errors : sum local = 2.528e-08, global = 6.13016e-09, cumulative = 6.22115e-06
smoothSolver:  Solving for epsilon, Initial residual = 0.00362259, Final residual = 1.29876e-07, No Iterations 3
smoothSolver:  Solving for k, Initial residual = 0.181171, Final residual = 1.2938e-07, No Iterations 5
ExecutionTime = 0.14 s  ClockTime = 0 s

Courant Number mean: 0.0046472 max: 0.0383387
Interface Courant Number mean: 7.31956e-05 max: 0.0352904
deltaT = 0.00219362
Time = 0.00832115

smoothSolver:  Solving for alpha.water, Initial residual = 0.000250139, Final residual = 9.77698e-13, No Iterations 2
Phase-1 volume fraction = 0.130194  Min(alpha.water) = 0  Max(alpha.water) = 1
MULES: Correcting alpha.water
MULES: Correcting alpha.water
Phase-1 volume fraction = 0.130194  Min(alpha.water) = -1.08039e-49  Max(alpha.water) = 1
DICPCG:  Solving for p_rgh, Initial residual = 0.00619195, Final residual = 0.000263865, No Iterations 1
time step continuity errors : sum local = 0.000105186, global = -2.82229e-08, cumulative = 6.19292e-06
DICPCG:  Solving for p_rgh, Initial residual = 0.000311582, Final residual = 1.53274e-05, No Iterations 10
time step continuity errors : sum local = 6.11809e-06, global = 1.52364e-06, cumulative = 7.71656e-06
DICPCG:  Solving for p_rgh, Initial residual = 6.92945e-05, Final residual = 7.82413e-08, No Iterations 37
time step continuity errors : sum local = 3.14328e-08, global = -2.60206e-09, cumulative = 7.71396e-06
smoothSolver:  Solving for epsilon, Initial residual = 0.00384658, Final residual = 2.43018e-07, No Iterations 3
smoothSolver:  Solving for k, Initial residual = 0.145403, Final residual = 2.32533e-07, No Iterations 5
ExecutionTime = 0.16 s  ClockTime = 0 s

Courant Number mean: 0.00723722 max: 0.0603859
Interface Courant Number mean: 0.000211107 max: 0.0545941
deltaT = 0.00260493
Time = 0.0109261

smoothSolver:  Solving for alpha.water, Initial residual = 0.000393092, Final residual = 9.83605e-12, No Iterations 2
Phase-1 volume fraction = 0.130194  Min(alpha.water) = 0  Max(alpha.water) = 1
MULES: Correcting alpha.water
MULES: Correcting alpha.water
Phase-1 volume fraction = 0.130194  Min(alpha.water) = -5.16818e-51  Max(alpha.water) = 1
DICPCG:  Solving for p_rgh, Initial residual = 0.00751636, Final residual = 0.000320636, No Iterations 1
time step continuity errors : sum local = 0.000168194, global = -2.21562e-07, cumulative = 7.4924e-06
DICPCG:  Solving for p_rgh, Initial residual = 0.000378813, Final residual = 1.32991e-05, No Iterations 12
time step continuity errors : sum local = 7.00095e-06, global = 1.33437e-06, cumulative = 8.82677e-06
DICPCG:  Solving for p_rgh, Initial residual = 8.39437e-05, Final residual = 8.13657e-08, No Iterations 44
time step continuity errors : sum local = 4.31299e-08, global = 3.09251e-09, cumulative = 8.82986e-06
smoothSolver:  Solving for epsilon, Initial residual = 0.0042465, Final residual = 5.30446e-07, No Iterations 3
smoothSolver:  Solving for k, Initial residual = 0.128161, Final residual = 5.31028e-07, No Iterations 5
ExecutionTime = 0.19 s  ClockTime = 0 s

Courant Number mean: 0.0112296 max: 0.0942614
Interface Courant Number mean: 0.000376154 max: 0.0840182
deltaT = 0.00300569
Time = 0.0139318

smoothSolver:  Solving for alpha.water, Initial residual = 0.000582358, Final residual = 7.08693e-11, No Iterations 2
Phase-1 volume fraction = 0.130194  Min(alpha.water) = 0  Max(alpha.water) = 1
MULES: Correcting alpha.water
MULES: Correcting alpha.water
Phase-1 volume fraction = 0.130194  Min(alpha.water) = -5.03687e-55  Max(alpha.water) = 1
DICPCG:  Solving for p_rgh, Initial residual = 0.0084105, Final residual = 0.000365429, No Iterations 1
time step continuity errors : sum local = 0.000241971, global = -6.39083e-08, cumulative = 8.76595e-06
DICPCG:  Solving for p_rgh, Initial residual = 0.000432838, Final residual = 1.55603e-05, No Iterations 12
time step continuity errors : sum local = 1.03941e-05, global = 1.93937e-06, cumulative = 1.07053e-05
DICPCG:  Solving for p_rgh, Initial residual = 0.00010345, Final residual = 9.76829e-08, No Iterations 44
time step continuity errors : sum local = 6.56906e-08, global = 2.74315e-09, cumulative = 1.07081e-05
smoothSolver:  Solving for epsilon, Initial residual = 0.00454214, Final residual = 9.7749e-07, No Iterations 3
smoothSolver:  Solving for k, Initial residual = 0.113534, Final residual = 9.99657e-07, No Iterations 5
ExecutionTime = 0.22 s  ClockTime = 0 s

Courant Number mean: 0.0164239 max: 0.137691
Interface Courant Number mean: 0.000611735 max: 0.121665
deltaT = 0.00360682
Time = 0.0175386

smoothSolver:  Solving for alpha.water, Initial residual = 0.00087423, Final residual = 5.21605e-10, No Iterations 2
Phase-1 volume fraction = 0.130194  Min(alpha.water) = 0  Max(alpha.water) = 1
MULES: Correcting alpha.water
MULES: Correcting alpha.water
Phase-1 volume fraction = 0.130194  Min(alpha.water) = -2.39575e-50  Max(alpha.water) = 1
DICPCG:  Solving for p_rgh, Initial residual = 0.00924634, Final residual = 0.000417487, No Iterations 1
time step continuity errors : sum local = 0.000370252, global = -1.94835e-07, cumulative = 1.05132e-05
DICPCG:  Solving for p_rgh, Initial residual = 0.000499273, Final residual = 1.8825e-05, No Iterations 12
time step continuity errors : sum local = 1.68643e-05, global = 2.81665e-06, cumulative = 1.33299e-05
DICPCG:  Solving for p_rgh, Initial residual = 0.000131301, Final residual = 8.44872e-08, No Iterations 46
time step continuity errors : sum local = 7.62085e-08, global = 2.987e-09, cumulative = 1.33329e-05
smoothSolver:  Solving for epsilon, Initial residual = 0.0050478, Final residual = 3.06879e-07, No Iterations 4
smoothSolver:  Solving for k, Initial residual = 0.107888, Final residual = 5.02761e-07, No Iterations 6
ExecutionTime = 0.25 s  ClockTime = 0 s

Courant Number mean: 0.0246012 max: 0.204342
Interface Courant Number mean: 0.000999447 max: 0.180614
deltaT = 0.00405768
Time = 0.0215963

smoothSolver:  Solving for alpha.water, Initial residual = 0.00121522, Final residual = 2.54055e-09, No Iterations 2
Phase-1 volume fraction = 0.130194  Min(alpha.water) = 0  Max(alpha.water) = 1
MULES: Correcting alpha.water
MULES: Correcting alpha.water
Phase-1 volume fraction = 0.130194  Min(alpha.water) = -2.16798e-46  Max(alpha.water) = 1
DICPCG:  Solving for p_rgh, Initial residual = 0.00941956, Final residual = 0.00045093, No Iterations 1
time step continuity errors : sum local = 0.000482242, global = -4.78278e-07, cumulative = 1.28546e-05
DICPCG:  Solving for p_rgh, Initial residual = 0.000545151, Final residual = 2.67227e-05, No Iterations 10
time step continuity errors : sum local = 2.88753e-05, global = 6.64484e-06, cumulative = 1.94994e-05
DICPCG:  Solving for p_rgh, Initial residual = 0.000159133, Final residual = 7.9234e-08, No Iterations 47
time step continuity errors : sum local = 8.60246e-08, global = 2.54843e-09, cumulative = 1.9502e-05
smoothSolver:  Solving for epsilon, Initial residual = 0.00528371, Final residual = 5.43571e-07, No Iterations 4
smoothSolver:  Solving for k, Initial residual = 0.0987831, Final residual = 8.82241e-07, No Iterations 6
ExecutionTime = 0.28 s  ClockTime = 0 s

Courant Number mean: 0.0337923 max: 0.275133
Interface Courant Number mean: 0.00141682 max: 0.246296
deltaT = 0.00473396
Time = 0.0263302

smoothSolver:  Solving for alpha.water, Initial residual = 0.00171795, Final residual = 3.8197e-11, No Iterations 3
Phase-1 volume fraction = 0.130194  Min(alpha.water) = 0  Max(alpha.water) = 1
MULES: Correcting alpha.water
MULES: Correcting alpha.water
Phase-1 volume fraction = 0.130194  Min(alpha.water) = -7.57417e-42  Max(alpha.water) = 1
DICPCG:  Solving for p_rgh, Initial residual = 0.00931079, Final residual = 0.000157992, No Iterations 2
time step continuity errors : sum local = 0.000213627, global = -1.83327e-06, cumulative = 1.76687e-05
DICPCG:  Solving for p_rgh, Initial residual = 0.000204955, Final residual = 9.08638e-06, No Iterations 13
time step continuity errors : sum local = 1.24203e-05, global = 1.77185e-06, cumulative = 1.94406e-05
DICPCG:  Solving for p_rgh, Initial residual = 8.55699e-05, Final residual = 6.88088e-08, No Iterations 47
time step continuity errors : sum local = 9.43276e-08, global = 1.29225e-08, cumulative = 1.94535e-05
smoothSolver:  Solving for epsilon, Initial residual = 0.00577313, Final residual = 2.26464e-07, No Iterations 5
smoothSolver:  Solving for k, Initial residual = 0.0964229, Final residual = 5.21771e-07, No Iterations 7
ExecutionTime = 0.31 s  ClockTime = 0 s

Courant Number mean: 0.0475979 max: 0.375278
Interface Courant Number mean: 0.00206405 max: 0.347124
deltaT = 0.00473396
Time = 0.0310642

smoothSolver:  Solving for alpha.water, Initial residual = 0.00205941, Final residual = 1.21079e-10, No Iterations 3
Phase-1 volume fraction = 0.130194  Min(alpha.water) = 0  Max(alpha.water) = 1
MULES: Correcting alpha.water
MULES: Correcting alpha.water
Phase-1 volume fraction = 0.130194  Min(alpha.water) = -4.3108e-39  Max(alpha.water) = 1
DICPCG:  Solving for p_rgh, Initial residual = 0.00828007, Final residual = 0.000162366, No Iterations 2
time step continuity errors : sum local = 0.000219647, global = -5.53837e-07, cumulative = 1.88996e-05
DICPCG:  Solving for p_rgh, Initial residual = 0.000209255, Final residual = 9.53916e-06, No Iterations 13
time step continuity errors : sum local = 1.30311e-05, global = 1.94858e-06, cumulative = 2.08482e-05
DICPCG:  Solving for p_rgh, Initial residual = 8.51044e-05, Final residual = 6.91995e-08, No Iterations 47
time step continuity errors : sum local = 9.44225e-08, global = 1.30441e-08, cumulative = 2.08613e-05
smoothSolver:  Solving for epsilon, Initial residual = 0.00563965, Final residual = 2.18085e-07, No Iterations 5
smoothSolver:  Solving for k, Initial residual = 0.0835304, Final residual = 4.3692e-07, No Iterations 7
ExecutionTime = 0.34 s  ClockTime = 0 s

Courant Number mean: 0.0559086 max: 0.421012
Interface Courant Number mean: 0.0023949 max: 0.411839
deltaT = 0.00473396
Time = 0.0357981

smoothSolver:  Solving for alpha.water, Initial residual = 0.00240082, Final residual = 3.14446e-10, No Iterations 3
Phase-1 volume fraction = 0.130194  Min(alpha.water) = 0  Max(alpha.water) = 1
MULES: Correcting alpha.water
MULES: Correcting alpha.water
Phase-1 volume fraction = 0.130194  Min(alpha.water) = -1.82175e-36  Max(alpha.water) = 1
DICPCG:  Solving for p_rgh, Initial residual = 0.00718149, Final residual = 0.00017665, No Iterations 2
time step continuity errors : sum local = 0.000237716, global = -6.23434e-07, cumulative = 2.02378e-05
DICPCG:  Solving for p_rgh, Initial residual = 0.000227359, Final residual = 1.02579e-05, No Iterations 13
time step continuity errors : sum local = 1.39232e-05, global = 2.1039e-06, cumulative = 2.23417e-05
DICPCG:  Solving for p_rgh, Initial residual = 8.79702e-05, Final residual = 7.72126e-08, No Iterations 47
time step continuity errors : sum local = 1.04375e-07, global = 1.34832e-08, cumulative = 2.23552e-05
smoothSolver:  Solving for epsilon, Initial residual = 0.00613443, Final residual = 2.23092e-07, No Iterations 5
smoothSolver:  Solving for k, Initial residual = 0.0755571, Final residual = 3.86481e-07, No Iterations 7
ExecutionTime = 0.37 s  ClockTime = 0 s

Courant Number mean: 0.0643849 max: 0.485114
Interface Courant Number mean: 0.00279849 max: 0.485114
deltaT = 0.00473396
Time = 0.0405321

smoothSolver:  Solving for alpha.water, Initial residual = 0.00274446, Final residual = 7.00605e-10, No Iterations 3
Phase-1 volume fraction = 0.130194  Min(alpha.water) = 0  Max(alpha.water) = 1
MULES: Correcting alpha.water
MULES: Correcting alpha.water
Phase-1 volume fraction = 0.130194  Min(alpha.water) = -1.05185e-34  Max(alpha.water) = 1
DICPCG:  Solving for p_rgh, Initial residual = 0.00550417, Final residual = 0.000229855, No Iterations 2
time step continuity errors : sum local = 0.000304721, global = -6.68297e-07, cumulative = 2.16869e-05
DICPCG:  Solving for p_rgh, Initial residual = 0.000297619, Final residual = 1.29655e-05, No Iterations 13
time step continuity errors : sum local = 1.73027e-05, global = 3.31629e-06, cumulative = 2.50032e-05
DICPCG:  Solving for p_rgh, Initial residual = 0.000103921, Final residual = 9.02851e-08, No Iterations 47
time step continuity errors : sum local = 1.19799e-07, global = 1.6007e-08, cumulative = 2.50192e-05
smoothSolver:  Solving for epsilon, Initial residual = 0.00697152, Final residual = 2.42638e-07, No Iterations 5
smoothSolver:  Solving for k, Initial residual = 0.0708084, Final residual = 3.59499e-07, No Iterations 7
ExecutionTime = 0.39 s  ClockTime = 0 s

Courant Number mean: 0.0731036 max: 0.563903
Interface Courant Number mean: 0.00336019 max: 0.45059
deltaT = 0.00473396
Time = 0.045266

smoothSolver:  Solving for alpha.water, Initial residual = 0.00309067, Final residual = 1.39436e-09, No Iterations 3
Phase-1 volume fraction = 0.130194  Min(alpha.water) = 0  Max(alpha.water) = 1
MULES: Correcting alpha.water
MULES: Correcting alpha.water
Phase-1 volume fraction = 0.130194  Min(alpha.water) = -2.33999e-33  Max(alpha.water) = 1.00001
DICPCG:  Solving for p_rgh, Initial residual = 0.0090432, Final residual = 0.000299415, No Iterations 2
time step continuity errors : sum local = 0.000390772, global = -1.17653e-06, cumulative = 2.38427e-05
DICPCG:  Solving for p_rgh, Initial residual = 0.000384196, Final residual = 1.62439e-05, No Iterations 13
time step continuity errors : sum local = 2.13022e-05, global = 3.89099e-06, cumulative = 2.77337e-05
DICPCG:  Solving for p_rgh, Initial residual = 0.000127072, Final residual = 7.29309e-08, No Iterations 49
time step continuity errors : sum local = 9.51563e-08, global = 7.7625e-09, cumulative = 2.77414e-05
smoothSolver:  Solving for epsilon, Initial residual = 0.00789026, Final residual = 2.78465e-07, No Iterations 5
smoothSolver:  Solving for k, Initial residual = 0.0682636, Final residual = 3.53187e-07, No Iterations 7
ExecutionTime = 0.42 s  ClockTime = 0 s

Courant Number mean: 0.0820529 max: 0.625269
Interface Courant Number mean: 0.00472429 max: 0.501396
deltaT = 0.00473396
Time = 0.05

smoothSolver:  Solving for alpha.water, Initial residual = 0.00344058, Final residual = 2.58635e-09, No Iterations 3
Phase-1 volume fraction = 0.130194  Min(alpha.water) = 0  Max(alpha.water) = 1
MULES: Correcting alpha.water
MULES: Correcting alpha.water
Phase-1 volume fraction = 0.130194  Min(alpha.water) = -2.82141e-32  Max(alpha.water) = 1.00001
DICPCG:  Solving for p_rgh, Initial residual = 0.0102814, Final residual = 0.000341432, No Iterations 2
time step continuity errors : sum local = 0.000442644, global = -1.46847e-06, cumulative = 2.6273e-05
DICPCG:  Solving for p_rgh, Initial residual = 0.000429018, Final residual = 1.78393e-05, No Iterations 13
time step continuity errors : sum local = 2.33603e-05, global = 3.1027e-06, cumulative = 2.93757e-05
DICPCG:  Solving for p_rgh, Initial residual = 0.000139342, Final residual = 8.49004e-08, No Iterations 49
time step continuity errors : sum local = 1.10304e-07, global = 3.77427e-09, cumulative = 2.93794e-05
smoothSolver:  Solving for epsilon, Initial residual = 0.00923057, Final residual = 3.34172e-07, No Iterations 5
smoothSolver:  Solving for k, Initial residual = 0.0674639, Final residual = 3.68014e-07, No Iterations 7
ExecutionTime = 0.48 s  ClockTime = 0 s

Courant Number mean: 0.091197 max: 0.673081
Interface Courant Number mean: 0.00538291 max: 0.573153
deltaT = 0.005
Time = 0.055

smoothSolver:  Solving for alpha.water, Initial residual = 0.00400787, Final residual = 6.14008e-09, No Iterations 3
Phase-1 volume fraction = 0.130194  Min(alpha.water) = 0  Max(alpha.water) = 1
MULES: Correcting alpha.water
MULES: Correcting alpha.water
Phase-1 volume fraction = 0.130194  Min(alpha.water) = -7.59799e-31  Max(alpha.water) = 1
DICPCG:  Solving for p_rgh, Initial residual = 0.0107174, Final residual = 0.000410855, No Iterations 2
time step continuity errors : sum local = 0.000575418, global = -1.19349e-06, cumulative = 2.8186e-05
DICPCG:  Solving for p_rgh, Initial residual = 0.000516152, Final residual = 2.05397e-05, No Iterations 13
time step continuity errors : sum local = 2.91259e-05, global = 4.01653e-06, cumulative = 3.22025e-05
DICPCG:  Solving for p_rgh, Initial residual = 0.000158801, Final residual = 9.54831e-08, No Iterations 49
time step continuity errors : sum local = 1.34005e-07, global = 8.01446e-09, cumulative = 3.22105e-05
smoothSolver:  Solving for epsilon, Initial residual = 0.0113028, Final residual = 5.89732e-07, No Iterations 5
smoothSolver:  Solving for k, Initial residual = 0.0711685, Final residual = 6.09932e-07, No Iterations 7
ExecutionTime = 0.51 s  ClockTime = 0 s

Courant Number mean: 0.106581 max: 0.747154
Interface Courant Number mean: 0.00635628 max: 0.672569
deltaT = 0.005625
Time = 0.060625

smoothSolver:  Solving for alpha.water, Initial residual = 0.0049532, Final residual = 2.69364e-10, No Iterations 4
Phase-1 volume fraction = 0.130194  Min(alpha.water) = 0  Max(alpha.water) = 1
MULES: Correcting alpha.water
MULES: Correcting alpha.water
Phase-1 volume fraction = 0.130194  Min(alpha.water) = -3.56736e-19  Max(alpha.water) = 1
DICPCG:  Solving for p_rgh, Initial residual = 0.0103703, Final residual = 0.000476885, No Iterations 2
time step continuity errors : sum local = 0.000788753, global = -1.67944e-06, cumulative = 3.05311e-05
DICPCG:  Solving for p_rgh, Initial residual = 0.000607378, Final residual = 2.51058e-05, No Iterations 13
time step continuity errors : sum local = 4.20754e-05, global = 5.70077e-06, cumulative = 3.62318e-05
DICPCG:  Solving for p_rgh, Initial residual = 0.000194338, Final residual = 8.68142e-08, No Iterations 50
time step continuity errors : sum local = 1.44216e-07, global = 1.57747e-08, cumulative = 3.62476e-05
smoothSolver:  Solving for epsilon, Initial residual = 0.014421, Final residual = 3.20581e-07, No Iterations 6
smoothSolver:  Solving for k, Initial residual = 0.0797588, Final residual = 4.40629e-07, No Iterations 8
ExecutionTime = 0.54 s  ClockTime = 0 s

Courant Number mean: 0.132681 max: 0.897113
Interface Courant Number mean: 0.00797418 max: 0.723327
deltaT = 0.005625
Time = 0.06625

smoothSolver:  Solving for alpha.water, Initial residual = 0.00544573, Final residual = 4.61771e-10, No Iterations 4
Phase-1 volume fraction = 0.130194  Min(alpha.water) = -1.88041e-19  Max(alpha.water) = 1
MULES: Correcting alpha.water
MULES: Correcting alpha.water
Phase-1 volume fraction = 0.130194  Min(alpha.water) = -1.88041e-19  Max(alpha.water) = 1
DICPCG:  Solving for p_rgh, Initial residual = 0.00920214, Final residual = 0.000283013, No Iterations 3
time step continuity errors : sum local = 0.000465875, global = -2.8264e-06, cumulative = 3.34212e-05
DICPCG:  Solving for p_rgh, Initial residual = 0.000378365, Final residual = 1.31376e-05, No Iterations 14
time step continuity errors : sum local = 2.18787e-05, global = 6.46885e-06, cumulative = 3.98901e-05
DICPCG:  Solving for p_rgh, Initial residual = 0.000126699, Final residual = 9.31558e-08, No Iterations 49
time step continuity errors : sum local = 1.53277e-07, global = 1.65175e-08, cumulative = 3.99066e-05
smoothSolver:  Solving for epsilon, Initial residual = 0.0164665, Final residual = 4.11331e-07, No Iterations 6
smoothSolver:  Solving for k, Initial residual = 0.0789053, Final residual = 5.1773e-07, No Iterations 8
ExecutionTime = 0.56 s  ClockTime = 0 s

Courant Number mean: 0.145615 max: 0.985711
Interface Courant Number mean: 0.00919606 max: 0.832078
deltaT = 0.005625
Time = 0.071875

smoothSolver:  Solving for alpha.water, Initial residual = 0.00593157, Final residual = 7.21959e-10, No Iterations 4
Phase-1 volume fraction = 0.130194  Min(alpha.water) = 0  Max(alpha.water) = 1
MULES: Correcting alpha.water
MULES: Correcting alpha.water
Phase-1 volume fraction = 0.130194  Min(alpha.water) = -1.40162e-27  Max(alpha.water) = 1
DICPCG:  Solving for p_rgh, Initial residual = 0.00834768, Final residual = 0.000332378, No Iterations 3
time step continuity errors : sum local = 0.000539777, global = -1.82359e-06, cumulative = 3.8083e-05
DICPCG:  Solving for p_rgh, Initial residual = 0.000451823, Final residual = 1.75308e-05, No Iterations 14
time step continuity errors : sum local = 2.87447e-05, global = 1.12608e-05, cumulative = 4.93438e-05
DICPCG:  Solving for p_rgh, Initial residual = 0.000153117, Final residual = 8.75952e-08, No Iterations 50
time step continuity errors : sum local = 1.41627e-07, global = 1.7091e-08, cumulative = 4.93609e-05
smoothSolver:  Solving for epsilon, Initial residual = 0.0193805, Final residual = 5.10735e-07, No Iterations 6
smoothSolver:  Solving for k, Initial residual = 0.075414, Final residual = 5.82632e-07, No Iterations 8
ExecutionTime = 0.6 s  ClockTime = 0 s

Courant Number mean: 0.158812 max: 1.02776
Interface Courant Number mean: 0.0101779 max: 0.935823
deltaT = 0.0046875
Time = 0.0765625

smoothSolver:  Solving for alpha.water, Initial residual = 0.00535719, Final residual = 2.71697e-10, No Iterations 4
Phase-1 volume fraction = 0.130194  Min(alpha.water) = 0  Max(alpha.water) = 1
MULES: Correcting alpha.water
MULES: Correcting alpha.water
Phase-1 volume fraction = 0.130194  Min(alpha.water) = -1.32585e-08  Max(alpha.water) = 1
DICPCG:  Solving for p_rgh, Initial residual = 0.0112344, Final residual = 0.000501053, No Iterations 2
time step continuity errors : sum local = 0.000617822, global = -3.3165e-06, cumulative = 4.60444e-05
DICPCG:  Solving for p_rgh, Initial residual = 0.000666933, Final residual = 2.74881e-05, No Iterations 13
time step continuity errors : sum local = 3.42609e-05, global = 3.20979e-06, cumulative = 4.92542e-05
DICPCG:  Solving for p_rgh, Initial residual = 0.000212229, Final residual = 6.46823e-08, No Iterations 55
time step continuity errors : sum local = 7.95295e-08, global = 7.06587e-09, cumulative = 4.92613e-05
smoothSolver:  Solving for epsilon, Initial residual = 0.0182576, Final residual = 9.68606e-07, No Iterations 5
smoothSolver:  Solving for k, Initial residual = 0.0596348, Final residual = 5.90804e-07, No Iterations 7
ExecutionTime = 0.62 s  ClockTime = 0 s

Courant Number mean: 0.14202 max: 0.860362
Interface Courant Number mean: 0.00897524 max: 0.734576
deltaT = 0.0046875
Time = 0.08125

smoothSolver:  Solving for alpha.water, Initial residual = 0.00572638, Final residual = 3.53762e-10, No Iterations 4
Phase-1 volume fraction = 0.130194  Min(alpha.water) = 0  Max(alpha.water) = 1
MULES: Correcting alpha.water
MULES: Correcting alpha.water
Phase-1 volume fraction = 0.130194  Min(alpha.water) = -1.19169e-13  Max(alpha.water) = 1
DICPCG:  Solving for p_rgh, Initial residual = 0.0116984, Final residual = 0.000551985, No Iterations 2
time step continuity errors : sum local = 0.000678971, global = -1.01502e-06, cumulative = 4.82463e-05
DICPCG:  Solving for p_rgh, Initial residual = 0.000724564, Final residual = 3.47497e-05, No Iterations 12
time step continuity errors : sum local = 4.33537e-05, global = 5.32279e-06, cumulative = 5.35691e-05
DICPCG:  Solving for p_rgh, Initial residual = 0.000227085, Final residual = 9.31686e-08, No Iterations 54
time step continuity errors : sum local = 1.15015e-07, global = 4.11025e-09, cumulative = 5.35732e-05
smoothSolver:  Solving for epsilon, Initial residual = 0.020132, Final residual = 2.03422e-07, No Iterations 6
smoothSolver:  Solving for k, Initial residual = 0.0567962, Final residual = 6.36946e-07, No Iterations 7
ExecutionTime = 0.65 s  ClockTime = 0 s

Courant Number mean: 0.151795 max: 0.879353
Interface Courant Number mean: 0.00954905 max: 0.759154
deltaT = 0.0046875
Time = 0.0859375

smoothSolver:  Solving for alpha.water, Initial residual = 0.00609946, Final residual = 4.34305e-10, No Iterations 4
Phase-1 volume fraction = 0.130194  Min(alpha.water) = -9.07781e-14  Max(alpha.water) = 1
MULES: Correcting alpha.water
MULES: Correcting alpha.water
Phase-1 volume fraction = 0.130194  Min(alpha.water) = -9.07781e-14  Max(alpha.water) = 1
DICPCG:  Solving for p_rgh, Initial residual = 0.0102682, Final residual = 0.00031208, No Iterations 3
time step continuity errors : sum local = 0.000383536, global = -2.62531e-06, cumulative = 5.09479e-05
DICPCG:  Solving for p_rgh, Initial residual = 0.000414087, Final residual = 1.53869e-05, No Iterations 14
time step continuity errors : sum local = 1.91679e-05, global = 5.5589e-06, cumulative = 5.65068e-05
DICPCG:  Solving for p_rgh, Initial residual = 0.000138451, Final residual = 7.83243e-08, No Iterations 53
time step continuity errors : sum local = 9.67009e-08, global = 9.54866e-09, cumulative = 5.65163e-05
smoothSolver:  Solving for epsilon, Initial residual = 0.0218911, Final residual = 2.53261e-07, No Iterations 6
smoothSolver:  Solving for k, Initial residual = 0.0541673, Final residual = 7.06929e-07, No Iterations 7
ExecutionTime = 0.68 s  ClockTime = 0 s

Courant Number mean: 0.161609 max: 0.903538
Interface Courant Number mean: 0.0106822 max: 0.767706
deltaT = 0.0046875
Time = 0.090625

smoothSolver:  Solving for alpha.water, Initial residual = 0.00646838, Final residual = 5.045e-10, No Iterations 4
Phase-1 volume fraction = 0.130194  Min(alpha.water) = -6.82979e-14  Max(alpha.water) = 1
MULES: Correcting alpha.water
MULES: Correcting alpha.water
Phase-1 volume fraction = 0.130194  Min(alpha.water) = -6.82979e-14  Max(alpha.water) = 1
DICPCG:  Solving for p_rgh, Initial residual = 0.00962262, Final residual = 0.0003213, No Iterations 3
time step continuity errors : sum local = 0.000393597, global = -9.20738e-07, cumulative = 5.55956e-05
DICPCG:  Solving for p_rgh, Initial residual = 0.000444843, Final residual = 1.68674e-05, No Iterations 14
time step continuity errors : sum local = 2.09206e-05, global = 8.12581e-06, cumulative = 6.37214e-05
DICPCG:  Solving for p_rgh, Initial residual = 0.00015218, Final residual = 8.91931e-08, No Iterations 52
time step continuity errors : sum local = 1.09847e-07, global = 1.19629e-08, cumulative = 6.37333e-05
smoothSolver:  Solving for epsilon, Initial residual = 0.0234199, Final residual = 3.1345e-07, No Iterations 6
smoothSolver:  Solving for k, Initial residual = 0.0515901, Final residual = 7.85188e-07, No Iterations 7
ExecutionTime = 0.71 s  ClockTime = 1 s

Courant Number mean: 0.171422 max: 0.912859
Interface Courant Number mean: 0.0110293 max: 0.748486
deltaT = 0.0046875
Time = 0.0953125

smoothSolver:  Solving for alpha.water, Initial residual = 0.00682901, Final residual = 5.61991e-10, No Iterations 4
Phase-1 volume fraction = 0.130194  Min(alpha.water) = -5.09912e-14  Max(alpha.water) = 1
MULES: Correcting alpha.water
MULES: Correcting alpha.water
Phase-1 volume fraction = 0.130194  Min(alpha.water) = -5.09912e-14  Max(alpha.water) = 1
DICPCG:  Solving for p_rgh, Initial residual = 0.0118235, Final residual = 0.000367959, No Iterations 3
time step continuity errors : sum local = 0.000450316, global = -1.8258e-06, cumulative = 6.19075e-05
DICPCG:  Solving for p_rgh, Initial residual = 0.000502903, Final residual = 2.03113e-05, No Iterations 14
time step continuity errors : sum local = 2.51793e-05, global = 9.59155e-06, cumulative = 7.14991e-05
DICPCG:  Solving for p_rgh, Initial residual = 0.00017344, Final residual = 9.70792e-08, No Iterations 52
time step continuity errors : sum local = 1.19343e-07, global = 1.28707e-08, cumulative = 7.1512e-05
smoothSolver:  Solving for epsilon, Initial residual = 0.0248015, Final residual = 3.77056e-07, No Iterations 6
smoothSolver:  Solving for k, Initial residual = 0.0494222, Final residual = 8.61383e-07, No Iterations 7
ExecutionTime = 0.73 s  ClockTime = 1 s

Courant Number mean: 0.181371 max: 0.915174
Interface Courant Number mean: 0.011811 max: 0.791189
deltaT = 0.0046875
Time = 0.1

smoothSolver:  Solving for alpha.water, Initial residual = 0.0071997, Final residual = 5.94983e-10, No Iterations 4
Phase-1 volume fraction = 0.130194  Min(alpha.water) = -3.79344e-14  Max(alpha.water) = 1
MULES: Correcting alpha.water
MULES: Correcting alpha.water
Phase-1 volume fraction = 0.130194  Min(alpha.water) = -3.79344e-14  Max(alpha.water) = 1
DICPCG:  Solving for p_rgh, Initial residual = 0.0118427, Final residual = 0.000385255, No Iterations 3
time step continuity errors : sum local = 0.000473526, global = -2.20392e-06, cumulative = 6.9308e-05
DICPCG:  Solving for p_rgh, Initial residual = 0.000514422, Final residual = 2.25429e-05, No Iterations 14
time step continuity errors : sum local = 2.81723e-05, global = 6.9483e-06, cumulative = 7.62563e-05
DICPCG:  Solving for p_rgh, Initial residual = 0.000170644, Final residual = 9.62856e-08, No Iterations 50
time step continuity errors : sum local = 1.19626e-07, global = 3.10553e-09, cumulative = 7.62594e-05
smoothSolver:  Solving for epsilon, Initial residual = 0.0259899, Final residual = 4.35266e-07, No Iterations 6
smoothSolver:  Solving for k, Initial residual = 0.0473292, Final residual = 9.22101e-07, No Iterations 7
ExecutionTime = 0.79 s  ClockTime = 1 s

Courant Number mean: 0.191348 max: 0.928719
Interface Courant Number mean: 0.0129325 max: 0.7659
deltaT = 0.005
Time = 0.105

smoothSolver:  Solving for alpha.water, Initial residual = 0.00809026, Final residual = 9.67983e-10, No Iterations 4
Phase-1 volume fraction = 0.130194  Min(alpha.water) = -2.77601e-14  Max(alpha.water) = 1
MULES: Correcting alpha.water
MULES: Correcting alpha.water
Phase-1 volume fraction = 0.130194  Min(alpha.water) = -2.77601e-14  Max(alpha.water) = 1
DICPCG:  Solving for p_rgh, Initial residual = 0.0118115, Final residual = 0.000408012, No Iterations 3
time step continuity errors : sum local = 0.000554861, global = -9.80242e-07, cumulative = 7.52792e-05
DICPCG:  Solving for p_rgh, Initial residual = 0.000565353, Final residual = 2.35698e-05, No Iterations 14
time step continuity errors : sum local = 3.25828e-05, global = 7.6362e-06, cumulative = 8.29154e-05
DICPCG:  Solving for p_rgh, Initial residual = 0.000188956, Final residual = 9.63411e-08, No Iterations 51
time step continuity errors : sum local = 1.32714e-07, global = -1.80271e-08, cumulative = 8.28974e-05
smoothSolver:  Solving for epsilon, Initial residual = 0.0287001, Final residual = 7.67306e-07, No Iterations 6
smoothSolver:  Solving for k, Initial residual = 0.0480633, Final residual = 4.07791e-07, No Iterations 8
ExecutionTime = 0.82 s  ClockTime = 1 s

Courant Number mean: 0.215175 max: 0.994735
Interface Courant Number mean: 0.015522 max: 0.808379
deltaT = 0.005
Time = 0.11

smoothSolver:  Solving for alpha.water, Initial residual = 0.00850978, Final residual = 9.58748e-10, No Iterations 4
Phase-1 volume fraction = 0.130194  Min(alpha.water) = -2.04638e-14  Max(alpha.water) = 1
MULES: Correcting alpha.water
MULES: Correcting alpha.water
Phase-1 volume fraction = 0.130194  Min(alpha.water) = -1.0082e-10  Max(alpha.water) = 1
DICPCG:  Solving for p_rgh, Initial residual = 0.0118811, Final residual = 0.000451812, No Iterations 3
time step continuity errors : sum local = 0.000617432, global = -1.12276e-06, cumulative = 8.17746e-05
DICPCG:  Solving for p_rgh, Initial residual = 0.000624013, Final residual = 2.72307e-05, No Iterations 14
time step continuity errors : sum local = 3.77715e-05, global = 8.66735e-06, cumulative = 9.0442e-05
DICPCG:  Solving for p_rgh, Initial residual = 0.000212316, Final residual = 7.82839e-08, No Iterations 52
time step continuity errors : sum local = 1.08085e-07, global = -1.61434e-08, cumulative = 9.04258e-05
smoothSolver:  Solving for epsilon, Initial residual = 0.0290952, Final residual = 8.13365e-07, No Iterations 6
smoothSolver:  Solving for k, Initial residual = 0.0458458, Final residual = 4.14861e-07, No Iterations 8
ExecutionTime = 0.85 s  ClockTime = 1 s

Courant Number mean: 0.226204 max: 0.99155
Interface Courant Number mean: 0.0155142 max: 0.848777
deltaT = 0.005
Time = 0.115

smoothSolver:  Solving for alpha.water, Initial residual = 0.00892149, Final residual = 9.06767e-10, No Iterations 4
Phase-1 volume fraction = 0.130194  Min(alpha.water) = -1.52798e-14  Max(alpha.water) = 1
MULES: Correcting alpha.water
MULES: Correcting alpha.water
Phase-1 volume fraction = 0.130194  Min(alpha.water) = -1.41226e-07  Max(alpha.water) = 1
DICPCG:  Solving for p_rgh, Initial residual = 0.0125907, Final residual = 0.000486283, No Iterations 3
time step continuity errors : sum local = 0.000670997, global = -1.3225e-06, cumulative = 8.91033e-05
DICPCG:  Solving for p_rgh, Initial residual = 0.000654867, Final residual = 2.63068e-05, No Iterations 14
time step continuity errors : sum local = 3.69608e-05, global = 7.1443e-06, cumulative = 9.62476e-05
DICPCG:  Solving for p_rgh, Initial residual = 0.000214125, Final residual = 7.55778e-08, No Iterations 52
time step continuity errors : sum local = 1.05946e-07, global = -1.70543e-08, cumulative = 9.62306e-05
smoothSolver:  Solving for epsilon, Initial residual = 0.0298578, Final residual = 8.58114e-07, No Iterations 6
smoothSolver:  Solving for k, Initial residual = 0.0440559, Final residual = 4.23701e-07, No Iterations 8
ExecutionTime = 0.88 s  ClockTime = 1 s

Courant Number mean: 0.237292 max: 0.990678
Interface Courant Number mean: 0.0178257 max: 0.848991
deltaT = 0.005
Time = 0.12

smoothSolver:  Solving for alpha.water, Initial residual = 0.00934492, Final residual = 8.42346e-10, No Iterations 4
Phase-1 volume fraction = 0.130194  Min(alpha.water) = -7.92818e-08  Max(alpha.water) = 1
MULES: Correcting alpha.water
MULES: Correcting alpha.water
Phase-1 volume fraction = 0.130194  Min(alpha.water) = -7.92818e-08  Max(alpha.water) = 1
DICPCG:  Solving for p_rgh, Initial residual = 0.0120258, Final residual = 0.000491959, No Iterations 3
time step continuity errors : sum local = 0.000688135, global = -7.4396e-07, cumulative = 9.54866e-05
DICPCG:  Solving for p_rgh, Initial residual = 0.000679535, Final residual = 2.97783e-05, No Iterations 13
time step continuity errors : sum local = 4.2412e-05, global = 5.61787e-06, cumulative = 0.000101104
DICPCG:  Solving for p_rgh, Initial residual = 0.000214657, Final residual = 9.44137e-08, No Iterations 56
time step continuity errors : sum local = 1.34387e-07, global = 1.55939e-08, cumulative = 0.00010112
smoothSolver:  Solving for epsilon, Initial residual = 0.0301916, Final residual = 9.33719e-07, No Iterations 6
smoothSolver:  Solving for k, Initial residual = 0.0420942, Final residual = 4.44649e-07, No Iterations 8
ExecutionTime = 0.91 s  ClockTime = 1 s

Courant Number mean: 0.248302 max: 0.993402
Interface Courant Number mean: 0.0176764 max: 0.861586
deltaT = 0.005
Time = 0.125

smoothSolver:  Solving for alpha.water, Initial residual = 0.00976346, Final residual = 7.65932e-10, No Iterations 4
Phase-1 volume fraction = 0.130194  Min(alpha.water) = -4.39729e-08  Max(alpha.water) = 1
MULES: Correcting alpha.water
MULES: Correcting alpha.water
Phase-1 volume fraction = 0.130194  Min(alpha.water) = -4.41486e-08  Max(alpha.water) = 1
DICPCG:  Solving for p_rgh, Initial residual = 0.012654, Final residual = 0.00053786, No Iterations 3
time step continuity errors : sum local = 0.00076055, global = 1.9535e-07, cumulative = 0.000101315
DICPCG:  Solving for p_rgh, Initial residual = 0.000729885, Final residual = 3.25818e-05, No Iterations 13
time step continuity errors : sum local = 4.68483e-05, global = 7.4361e-06, cumulative = 0.000108752
DICPCG:  Solving for p_rgh, Initial residual = 0.000233353, Final residual = 7.00759e-08, No Iterations 57
time step continuity errors : sum local = 1.00737e-07, global = 4.32793e-09, cumulative = 0.000108756
smoothSolver:  Solving for epsilon, Initial residual = 0.0302089, Final residual = 2.11002e-07, No Iterations 7
smoothSolver:  Solving for k, Initial residual = 0.0403853, Final residual = 4.72744e-07, No Iterations 8
ExecutionTime = 0.94 s  ClockTime = 1 s

Courant Number mean: 0.259275 max: 0.994658
Interface Courant Number mean: 0.0198587 max: 0.901001
deltaT = 0.005
Time = 0.13

smoothSolver:  Solving for alpha.water, Initial residual = 0.010189, Final residual = 6.82236e-10, No Iterations 4
Phase-1 volume fraction = 0.130194  Min(alpha.water) = -2.42503e-08  Max(alpha.water) = 1
MULES: Correcting alpha.water
MULES: Correcting alpha.water
Phase-1 volume fraction = 0.130194  Min(alpha.water) = -2.32675e-08  Max(alpha.water) = 1
DICPCG:  Solving for p_rgh, Initial residual = 0.013497, Final residual = 0.000550237, No Iterations 3
time step continuity errors : sum local = 0.000790178, global = -5.2357e-07, cumulative = 0.000108232
DICPCG:  Solving for p_rgh, Initial residual = 0.000737341, Final residual = 3.55346e-05, No Iterations 12
time step continuity errors : sum local = 5.20599e-05, global = 6.10501e-06, cumulative = 0.000114337
DICPCG:  Solving for p_rgh, Initial residual = 0.000233222, Final residual = 8.77438e-08, No Iterations 57
time step continuity errors : sum local = 1.28694e-07, global = 1.1583e-09, cumulative = 0.000114338
smoothSolver:  Solving for epsilon, Initial residual = 0.0301868, Final residual = 2.36436e-07, No Iterations 7
smoothSolver:  Solving for k, Initial residual = 0.0388081, Final residual = 5.06003e-07, No Iterations 8
ExecutionTime = 0.97 s  ClockTime = 1 s

Courant Number mean: 0.27018 max: 1.00079
Interface Courant Number mean: 0.0198644 max: 0.868811
deltaT = 0.005
Time = 0.135

smoothSolver:  Solving for alpha.water, Initial residual = 0.0105945, Final residual = 6.16384e-10, No Iterations 4
Phase-1 volume fraction = 0.130194  Min(alpha.water) = -1.30934e-08  Max(alpha.water) = 1
MULES: Correcting alpha.water
MULES: Correcting alpha.water
Phase-1 volume fraction = 0.130194  Min(alpha.water) = -5.69753e-07  Max(alpha.water) = 1
DICPCG:  Solving for p_rgh, Initial residual = 0.0123142, Final residual = 0.0005753, No Iterations 3
time step continuity errors : sum local = 0.000838847, global = 7.8992e-07, cumulative = 0.000115128
DICPCG:  Solving for p_rgh, Initial residual = 0.000786941, Final residual = 3.46952e-05, No Iterations 12
time step continuity errors : sum local = 5.15014e-05, global = 6.80926e-06, cumulative = 0.000121938
DICPCG:  Solving for p_rgh, Initial residual = 0.000245634, Final residual = 8.58066e-08, No Iterations 58
time step continuity errors : sum local = 1.27663e-07, global = -3.51104e-09, cumulative = 0.000121934
smoothSolver:  Solving for epsilon, Initial residual = 0.0302575, Final residual = 2.65133e-07, No Iterations 7
smoothSolver:  Solving for k, Initial residual = 0.0374288, Final residual = 5.38384e-07, No Iterations 8
ExecutionTime = 1 s  ClockTime = 1 s

Courant Number mean: 0.280948 max: 0.996619
Interface Courant Number mean: 0.0223759 max: 0.894334
deltaT = 0.005
Time = 0.14

smoothSolver:  Solving for alpha.water, Initial residual = 0.0110009, Final residual = 5.56903e-10, No Iterations 4
Phase-1 volume fraction = 0.130194  Min(alpha.water) = -3.46861e-07  Max(alpha.water) = 1
MULES: Correcting alpha.water
MULES: Correcting alpha.water
Phase-1 volume fraction = 0.130194  Min(alpha.water) = -3.46861e-07  Max(alpha.water) = 1
DICPCG:  Solving for p_rgh, Initial residual = 0.0140935, Final residual = 0.000625533, No Iterations 3
time step continuity errors : sum local = 0.000927282, global = 1.35979e-06, cumulative = 0.000123294
DICPCG:  Solving for p_rgh, Initial residual = 0.000832324, Final residual = 3.20098e-05, No Iterations 12
time step continuity errors : sum local = 4.83941e-05, global = 6.20343e-06, cumulative = 0.000129497
DICPCG:  Solving for p_rgh, Initial residual = 0.000256709, Final residual = 9.03157e-08, No Iterations 57
time step continuity errors : sum local = 1.36851e-07, global = -1.5353e-09, cumulative = 0.000129496
smoothSolver:  Solving for epsilon, Initial residual = 0.0302375, Final residual = 3.01405e-07, No Iterations 7
smoothSolver:  Solving for k, Initial residual = 0.036285, Final residual = 5.93165e-07, No Iterations 8
ExecutionTime = 1.03 s  ClockTime = 1 s

Courant Number mean: 0.291651 max: 0.991388
Interface Courant Number mean: 0.0222923 max: 0.83757
deltaT = 0.005
Time = 0.145

smoothSolver:  Solving for alpha.water, Initial residual = 0.0114319, Final residual = 5.11634e-10, No Iterations 4
Phase-1 volume fraction = 0.130194  Min(alpha.water) = -2.10428e-07  Max(alpha.water) = 1
MULES: Correcting alpha.water
MULES: Correcting alpha.water
Phase-1 volume fraction = 0.130194  Min(alpha.water) = -2.10428e-07  Max(alpha.water) = 1
DICPCG:  Solving for p_rgh, Initial residual = 0.0128326, Final residual = 0.000420666, No Iterations 4
time step continuity errors : sum local = 0.000634107, global = 1.08451e-05, cumulative = 0.000140341
DICPCG:  Solving for p_rgh, Initial residual = 0.000577726, Final residual = 2.51545e-05, No Iterations 12
time step continuity errors : sum local = 3.86789e-05, global = 1.89754e-06, cumulative = 0.000142238
DICPCG:  Solving for p_rgh, Initial residual = 0.000183062, Final residual = 8.66744e-08, No Iterations 56
time step continuity errors : sum local = 1.33623e-07, global = -1.02054e-09, cumulative = 0.000142237
smoothSolver:  Solving for epsilon, Initial residual = 0.0300786, Final residual = 3.40692e-07, No Iterations 7
smoothSolver:  Solving for k, Initial residual = 0.0352022, Final residual = 6.52638e-07, No Iterations 8
ExecutionTime = 1.06 s  ClockTime = 1 s

Courant Number mean: 0.30216 max: 0.988786
Interface Courant Number mean: 0.0242694 max: 0.768723
deltaT = 0.005
Time = 0.15

smoothSolver:  Solving for alpha.water, Initial residual = 0.0118196, Final residual = 4.85971e-10, No Iterations 4
Phase-1 volume fraction = 0.130194  Min(alpha.water) = -1.27578e-07  Max(alpha.water) = 1
MULES: Correcting alpha.water
MULES: Correcting alpha.water
Phase-1 volume fraction = 0.130194  Min(alpha.water) = -1.60068e-06  Max(alpha.water) = 1
DICPCG:  Solving for p_rgh, Initial residual = 0.0145834, Final residual = 0.0006658, No Iterations 3
time step continuity errors : sum local = 0.00101264, global = 6.52442e-06, cumulative = 0.000148762
DICPCG:  Solving for p_rgh, Initial residual = 0.000905119, Final residual = 3.92452e-05, No Iterations 11
time step continuity errors : sum local = 6.08701e-05, global = 7.42815e-06, cumulative = 0.00015619
DICPCG:  Solving for p_rgh, Initial residual = 0.00028461, Final residual = 7.3297e-08, No Iterations 55
time step continuity errors : sum local = 1.14061e-07, global = 3.55325e-09, cumulative = 0.000156194
smoothSolver:  Solving for epsilon, Initial residual = 0.0298331, Final residual = 3.81493e-07, No Iterations 7
smoothSolver:  Solving for k, Initial residual = 0.0340815, Final residual = 7.12166e-07, No Iterations 8
ExecutionTime = 1.11 s  ClockTime = 1 s

Courant Number mean: 0.312557 max: 0.992554
Interface Courant Number mean: 0.0240745 max: 0.796876
deltaT = 0.005
Time = 0.155

smoothSolver:  Solving for alpha.water, Initial residual = 0.0122351, Final residual = 4.70684e-10, No Iterations 4
Phase-1 volume fraction = 0.130194  Min(alpha.water) = -1.03879e-06  Max(alpha.water) = 1
MULES: Correcting alpha.water
MULES: Correcting alpha.water
Phase-1 volume fraction = 0.130194  Min(alpha.water) = -1.03879e-06  Max(alpha.water) = 1
DICPCG:  Solving for p_rgh, Initial residual = 0.0137964, Final residual = 0.000468133, No Iterations 4
time step continuity errors : sum local = 0.000725079, global = 2.14067e-05, cumulative = 0.0001776
DICPCG:  Solving for p_rgh, Initial residual = 0.000623563, Final residual = 2.4514e-05, No Iterations 12
time step continuity errors : sum local = 3.87271e-05, global = 6.40093e-07, cumulative = 0.00017824
DICPCG:  Solving for p_rgh, Initial residual = 0.000196192, Final residual = 8.49329e-08, No Iterations 55
time step continuity errors : sum local = 1.34577e-07, global = -1.14563e-09, cumulative = 0.000178239
smoothSolver:  Solving for epsilon, Initial residual = 0.0298627, Final residual = 4.24503e-07, No Iterations 7
smoothSolver:  Solving for k, Initial residual = 0.0332428, Final residual = 7.75222e-07, No Iterations 8
ExecutionTime = 1.14 s  ClockTime = 1 s

Courant Number mean: 0.322746 max: 1.00476
Interface Courant Number mean: 0.0262192 max: 0.829915
deltaT = 0.0045
Time = 0.1595

smoothSolver:  Solving for alpha.water, Initial residual = 0.0113973, Final residual = 2.14422e-10, No Iterations 4
Phase-1 volume fraction = 0.130194  Min(alpha.water) = -6.94595e-07  Max(alpha.water) = 1
MULES: Correcting alpha.water
MULES: Correcting alpha.water
Phase-1 volume fraction = 0.130194  Min(alpha.water) = -6.94595e-07  Max(alpha.water) = 1
DICPCG:  Solving for p_rgh, Initial residual = 0.0140611, Final residual = 0.000658187, No Iterations 3
time step continuity errors : sum local = 0.000891166, global = 8.72933e-06, cumulative = 0.000186969
DICPCG:  Solving for p_rgh, Initial residual = 0.000863692, Final residual = 3.3316e-05, No Iterations 11
time step continuity errors : sum local = 4.58952e-05, global = 1.7161e-06, cumulative = 0.000188685
DICPCG:  Solving for p_rgh, Initial residual = 0.000257427, Final residual = 7.92609e-08, No Iterations 56
time step continuity errors : sum local = 1.09465e-07, global = -2.72682e-09, cumulative = 0.000188682
smoothSolver:  Solving for epsilon, Initial residual = 0.0267671, Final residual = 2.01307e-07, No Iterations 7
smoothSolver:  Solving for k, Initial residual = 0.0292329, Final residual = 3.58651e-07, No Iterations 8
ExecutionTime = 1.17 s  ClockTime = 1 s

Courant Number mean: 0.298801 max: 0.908538
Interface Courant Number mean: 0.0241336 max: 0.676494
deltaT = 0.0045
Time = 0.164

smoothSolver:  Solving for alpha.water, Initial residual = 0.0117119, Final residual = 2.11311e-10, No Iterations 4
Phase-1 volume fraction = 0.130194  Min(alpha.water) = -4.63604e-07  Max(alpha.water) = 1
MULES: Correcting alpha.water
MULES: Correcting alpha.water
Phase-1 volume fraction = 0.130194  Min(alpha.water) = -4.63604e-07  Max(alpha.water) = 1
DICPCG:  Solving for p_rgh, Initial residual = 0.013983, Final residual = 0.000690132, No Iterations 3
time step continuity errors : sum local = 0.000949369, global = 1.20232e-05, cumulative = 0.000200705
DICPCG:  Solving for p_rgh, Initial residual = 0.000910177, Final residual = 4.13686e-05, No Iterations 10
time step continuity errors : sum local = 5.78894e-05, global = 4.80613e-06, cumulative = 0.000205511
DICPCG:  Solving for p_rgh, Initial residual = 0.000266866, Final residual = 7.9825e-08, No Iterations 56
time step continuity errors : sum local = 1.12044e-07, global = -3.68388e-09, cumulative = 0.000205508
smoothSolver:  Solving for epsilon, Initial residual = 0.0265607, Final residual = 2.20874e-07, No Iterations 7
smoothSolver:  Solving for k, Initial residual = 0.0286326, Final residual = 3.87465e-07, No Iterations 8
ExecutionTime = 1.2 s  ClockTime = 1 s

Courant Number mean: 0.307003 max: 0.918971
Interface Courant Number mean: 0.0249691 max: 0.694955
deltaT = 0.0045
Time = 0.1685

smoothSolver:  Solving for alpha.water, Initial residual = 0.0120526, Final residual = 2.08336e-10, No Iterations 4
Phase-1 volume fraction = 0.130194  Min(alpha.water) = -3.10965e-07  Max(alpha.water) = 1
MULES: Correcting alpha.water
MULES: Correcting alpha.water
Phase-1 volume fraction = 0.130194  Min(alpha.water) = -3.10965e-07  Max(alpha.water) = 1
DICPCG:  Solving for p_rgh, Initial residual = 0.0144002, Final residual = 0.000681181, No Iterations 3
time step continuity errors : sum local = 0.000952396, global = 1.63909e-05, cumulative = 0.000221899
DICPCG:  Solving for p_rgh, Initial residual = 0.000914123, Final residual = 3.97251e-05, No Iterations 10
time step continuity errors : sum local = 5.6536e-05, global = 3.35157e-06, cumulative = 0.00022525
DICPCG:  Solving for p_rgh, Initial residual = 0.000278845, Final residual = 8.39343e-08, No Iterations 56
time step continuity errors : sum local = 1.19814e-07, global = -3.19921e-09, cumulative = 0.000225247
smoothSolver:  Solving for epsilon, Initial residual = 0.0264551, Final residual = 2.41563e-07, No Iterations 7
smoothSolver:  Solving for k, Initial residual = 0.028033, Final residual = 4.1738e-07, No Iterations 8
ExecutionTime = 1.23 s  ClockTime = 1 s

Courant Number mean: 0.315083 max: 0.928197
Interface Courant Number mean: 0.0263761 max: 0.719411
deltaT = 0.0045
Time = 0.173

smoothSolver:  Solving for alpha.water, Initial residual = 0.0123555, Final residual = 2.05181e-10, No Iterations 4
Phase-1 volume fraction = 0.130194  Min(alpha.water) = -2.09299e-07  Max(alpha.water) = 1
MULES: Correcting alpha.water
MULES: Correcting alpha.water
Phase-1 volume fraction = 0.130194  Min(alpha.water) = -2.09299e-07  Max(alpha.water) = 1
DICPCG:  Solving for p_rgh, Initial residual = 0.0150216, Final residual = 0.000468711, No Iterations 4
time step continuity errors : sum local = 0.00066582, global = 5.1589e-05, cumulative = 0.000276836
DICPCG:  Solving for p_rgh, Initial residual = 0.000617709, Final residual = 2.36314e-05, No Iterations 11
time step continuity errors : sum local = 3.41466e-05, global = -1.21446e-06, cumulative = 0.000275621
DICPCG:  Solving for p_rgh, Initial residual = 0.000183182, Final residual = 6.87738e-08, No Iterations 55
time step continuity errors : sum local = 9.96425e-08, global = -2.79089e-09, cumulative = 0.000275619
smoothSolver:  Solving for epsilon, Initial residual = 0.0262327, Final residual = 2.63282e-07, No Iterations 7
smoothSolver:  Solving for k, Initial residual = 0.0274586, Final residual = 4.48538e-07, No Iterations 8
ExecutionTime = 1.26 s  ClockTime = 1 s

Courant Number mean: 0.323035 max: 0.936073
Interface Courant Number mean: 0.0275356 max: 0.653925
deltaT = 0.0045
Time = 0.1775

smoothSolver:  Solving for alpha.water, Initial residual = 0.0127023, Final residual = 2.02121e-10, No Iterations 4
Phase-1 volume fraction = 0.130194  Min(alpha.water) = -1.42219e-07  Max(alpha.water) = 1
MULES: Correcting alpha.water
MULES: Correcting alpha.water
Phase-1 volume fraction = 0.130194  Min(alpha.water) = -1.42219e-07  Max(alpha.water) = 1
DICPCG:  Solving for p_rgh, Initial residual = 0.0154347, Final residual = 0.000752457, No Iterations 3
time step continuity errors : sum local = 0.00108512, global = 3.65197e-05, cumulative = 0.000312138
DICPCG:  Solving for p_rgh, Initial residual = 0.000990369, Final residual = 4.021e-05, No Iterations 10
time step continuity errors : sum local = 5.89727e-05, global = 1.88047e-06, cumulative = 0.000314019
DICPCG:  Solving for p_rgh, Initial residual = 0.000292349, Final residual = 8.43069e-08, No Iterations 55
time step continuity errors : sum local = 1.24046e-07, global = -5.34032e-09, cumulative = 0.000314013
smoothSolver:  Solving for epsilon, Initial residual = 0.0260568, Final residual = 2.87124e-07, No Iterations 7
smoothSolver:  Solving for k, Initial residual = 0.026911, Final residual = 4.82283e-07, No Iterations 8
ExecutionTime = 1.29 s  ClockTime = 1 s

Courant Number mean: 0.330848 max: 0.942982
Interface Courant Number mean: 0.0295183 max: 0.665239
deltaT = 0.0045
Time = 0.182

smoothSolver:  Solving for alpha.water, Initial residual = 0.0130438, Final residual = 1.98719e-10, No Iterations 4
Phase-1 volume fraction = 0.130194  Min(alpha.water) = -9.76461e-08  Max(alpha.water) = 1
MULES: Correcting alpha.water
MULES: Correcting alpha.water
Phase-1 volume fraction = 0.130194  Min(alpha.water) = -9.76461e-08  Max(alpha.water) = 1
DICPCG:  Solving for p_rgh, Initial residual = 0.0156668, Final residual = 0.000491037, No Iterations 4
time step continuity errors : sum local = 0.000716994, global = 8.84837e-05, cumulative = 0.000402497
DICPCG:  Solving for p_rgh, Initial residual = 0.000639291, Final residual = 2.98246e-05, No Iterations 10
time step continuity errors : sum local = 4.43067e-05, global = -1.77e-06, cumulative = 0.000400727
DICPCG:  Solving for p_rgh, Initial residual = 0.000183559, Final residual = 7.5705e-08, No Iterations 54
time step continuity errors : sum local = 1.12765e-07, global = -1.3749e-09, cumulative = 0.000400726
smoothSolver:  Solving for epsilon, Initial residual = 0.0256532, Final residual = 3.12223e-07, No Iterations 7
smoothSolver:  Solving for k, Initial residual = 0.0263464, Final residual = 5.17523e-07, No Iterations 8
ExecutionTime = 1.31 s  ClockTime = 1 s

Courant Number mean: 0.338525 max: 0.948774
Interface Courant Number mean: 0.0298262 max: 0.678085
deltaT = 0.0045
Time = 0.1865

smoothSolver:  Solving for alpha.water, Initial residual = 0.0133602, Final residual = 1.95277e-10, No Iterations 4
Phase-1 volume fraction = 0.130194  Min(alpha.water) = -7.1454e-08  Max(alpha.water) = 1
MULES: Correcting alpha.water
MULES: Correcting alpha.water
Phase-1 volume fraction = 0.130194  Min(alpha.water) = -1.69676e-06  Max(alpha.water) = 1
DICPCG:  Solving for p_rgh, Initial residual = 0.0152734, Final residual = 0.000492786, No Iterations 4
time step continuity errors : sum local = 0.000729611, global = 0.00011455, cumulative = 0.000515276
DICPCG:  Solving for p_rgh, Initial residual = 0.000642905, Final residual = 2.9598e-05, No Iterations 10
time step continuity errors : sum local = 4.45913e-05, global = -2.32638e-06, cumulative = 0.00051295
DICPCG:  Solving for p_rgh, Initial residual = 0.000187437, Final residual = 9.18386e-08, No Iterations 53
time step continuity errors : sum local = 1.38732e-07, global = 1.14643e-09, cumulative = 0.000512951
smoothSolver:  Solving for epsilon, Initial residual = 0.0253599, Final residual = 3.39356e-07, No Iterations 7
smoothSolver:  Solving for k, Initial residual = 0.0258, Final residual = 5.55285e-07, No Iterations 8
ExecutionTime = 1.34 s  ClockTime = 1 s

Courant Number mean: 0.346042 max: 0.953473
Interface Courant Number mean: 0.0326124 max: 0.691843
deltaT = 0.0045
Time = 0.191

smoothSolver:  Solving for alpha.water, Initial residual = 0.0136643, Final residual = 1.91474e-10, No Iterations 4
Phase-1 volume fraction = 0.130194  Min(alpha.water) = -6.36529e-08  Max(alpha.water) = 1
MULES: Correcting alpha.water
MULES: Correcting alpha.water
Phase-1 volume fraction = 0.130194  Min(alpha.water) = -4.54925e-07  Max(alpha.water) = 1
DICPCG:  Solving for p_rgh, Initial residual = 0.0165142, Final residual = 0.000784026, No Iterations 3
time step continuity errors : sum local = 0.00117545, global = 9.65691e-05, cumulative = 0.00060952
DICPCG:  Solving for p_rgh, Initial residual = 0.00102558, Final residual = 4.52152e-05, No Iterations 9
time step continuity errors : sum local = 6.89274e-05, global = -1.73288e-06, cumulative = 0.000607787
DICPCG:  Solving for p_rgh, Initial residual = 0.00029809, Final residual = 7.28326e-08, No Iterations 55
time step continuity errors : sum local = 1.114e-07, global = 2.56067e-09, cumulative = 0.00060779
smoothSolver:  Solving for epsilon, Initial residual = 0.0252652, Final residual = 3.69297e-07, No Iterations 7
smoothSolver:  Solving for k, Initial residual = 0.0252616, Final residual = 5.9576e-07, No Iterations 8
ExecutionTime = 1.36 s  ClockTime = 1 s

Courant Number mean: 0.353402 max: 0.957289
Interface Courant Number mean: 0.0320271 max: 0.647377
deltaT = 0.0045
Time = 0.1955

smoothSolver:  Solving for alpha.water, Initial residual = 0.0139741, Final residual = 1.87669e-10, No Iterations 4
Phase-1 volume fraction = 0.130194  Min(alpha.water) = -5.42642e-08  Max(alpha.water) = 1
MULES: Correcting alpha.water
MULES: Correcting alpha.water
Phase-1 volume fraction = 0.130194  Min(alpha.water) = -2.70669e-07  Max(alpha.water) = 1
DICPCG:  Solving for p_rgh, Initial residual = 0.0155456, Final residual = 0.000774634, No Iterations 3
time step continuity errors : sum local = 0.00117315, global = 0.000126807, cumulative = 0.000734597
DICPCG:  Solving for p_rgh, Initial residual = 0.00102351, Final residual = 4.93352e-05, No Iterations 8
time step continuity errors : sum local = 7.58891e-05, global = 4.15848e-07, cumulative = 0.000735012
DICPCG:  Solving for p_rgh, Initial residual = 0.000308898, Final residual = 9.11721e-08, No Iterations 55
time step continuity errors : sum local = 1.4071e-07, global = -1.27659e-08, cumulative = 0.000735
smoothSolver:  Solving for epsilon, Initial residual = 0.0250168, Final residual = 4.01669e-07, No Iterations 7
smoothSolver:  Solving for k, Initial residual = 0.0247768, Final residual = 6.38623e-07, No Iterations 8
ExecutionTime = 1.39 s  ClockTime = 1 s

Courant Number mean: 0.360567 max: 0.959835
Interface Courant Number mean: 0.0349274 max: 0.661881
deltaT = 0.0045
Time = 0.2

smoothSolver:  Solving for alpha.water, Initial residual = 0.0142827, Final residual = 1.83462e-10, No Iterations 4
Phase-1 volume fraction = 0.130193  Min(alpha.water) = -4.51122e-08  Max(alpha.water) = 1
MULES: Correcting alpha.water
MULES: Correcting alpha.water
Phase-1 volume fraction = 0.130193  Min(alpha.water) = -4.51122e-08  Max(alpha.water) = 1
DICPCG:  Solving for p_rgh, Initial residual = 0.017344, Final residual = 0.000796068, No Iterations 3
time step continuity errors : sum local = 0.00121598, global = 0.000163617, cumulative = 0.000898617
DICPCG:  Solving for p_rgh, Initial residual = 0.0010451, Final residual = 4.81948e-05, No Iterations 8
time step continuity errors : sum local = 7.48451e-05, global = 4.45134e-08, cumulative = 0.000898661
DICPCG:  Solving for p_rgh, Initial residual = 0.000307347, Final residual = 9.26988e-08, No Iterations 56
time step continuity errors : sum local = 1.44436e-07, global = -9.59079e-09, cumulative = 0.000898652
smoothSolver:  Solving for epsilon, Initial residual = 0.0247573, Final residual = 4.36633e-07, No Iterations 7
smoothSolver:  Solving for k, Initial residual = 0.0242638, Final residual = 6.835e-07, No Iterations 8
ExecutionTime = 1.45 s  ClockTime = 2 s

Courant Number mean: 0.367591 max: 0.961658
Interface Courant Number mean: 0.0350224 max: 0.683211
deltaT = 0.00454545
Time = 0.204545

smoothSolver:  Solving for alpha.water, Initial residual = 0.0147534, Final residual = 1.92463e-10, No Iterations 4
Phase-1 volume fraction = 0.130193  Min(alpha.water) = -3.65241e-08  Max(alpha.water) = 1
MULES: Correcting alpha.water
MULES: Correcting alpha.water
Phase-1 volume fraction = 0.130193  Min(alpha.water) = -3.65241e-08  Max(alpha.water) = 1
DICPCG:  Solving for p_rgh, Initial residual = 0.0173952, Final residual = 0.000831354, No Iterations 3
time step continuity errors : sum local = 0.0012893, global = 0.00021383, cumulative = 0.00111248
DICPCG:  Solving for p_rgh, Initial residual = 0.0010838, Final residual = 5.11893e-05, No Iterations 8
time step continuity errors : sum local = 8.05903e-05, global = -3.95527e-06, cumulative = 0.00110853
DICPCG:  Solving for p_rgh, Initial residual = 0.000320297, Final residual = 9.69509e-08, No Iterations 56
time step continuity errors : sum local = 1.53166e-07, global = -1.02765e-08, cumulative = 0.00110852
smoothSolver:  Solving for epsilon, Initial residual = 0.0247458, Final residual = 5.13983e-07, No Iterations 7
smoothSolver:  Solving for k, Initial residual = 0.0239497, Final residual = 7.90816e-07, No Iterations 8
ExecutionTime = 1.48 s  ClockTime = 2 s

Courant Number mean: 0.378286 max: 0.972204
Interface Courant Number mean: 0.0376744 max: 0.694438
deltaT = 0.00454545
Time = 0.209091

smoothSolver:  Solving for alpha.water, Initial residual = 0.0150807, Final residual = 1.8756e-10, No Iterations 4
Phase-1 volume fraction = 0.130193  Min(alpha.water) = -2.92572e-08  Max(alpha.water) = 1
MULES: Correcting alpha.water
MULES: Correcting alpha.water
Phase-1 volume fraction = 0.130193  Min(alpha.water) = -2.92572e-08  Max(alpha.water) = 1
DICPCG:  Solving for p_rgh, Initial residual = 0.0177392, Final residual = 0.00086491, No Iterations 3
time step continuity errors : sum local = 0.00132294, global = 0.000256579, cumulative = 0.00136509
DICPCG:  Solving for p_rgh, Initial residual = 0.0011344, Final residual = 5.29572e-05, No Iterations 8
time step continuity errors : sum local = 8.22281e-05, global = -4.23862e-06, cumulative = 0.00136086
DICPCG:  Solving for p_rgh, Initial residual = 0.000335512, Final residual = 7.81138e-08, No Iterations 57
time step continuity errors : sum local = 1.2171e-07, global = 1.29581e-09, cumulative = 0.00136086
smoothSolver:  Solving for epsilon, Initial residual = 0.0243955, Final residual = 5.5893e-07, No Iterations 7
smoothSolver:  Solving for k, Initial residual = 0.0234103, Final residual = 8.44378e-07, No Iterations 8
ExecutionTime = 1.51 s  ClockTime = 2 s

Courant Number mean: 0.385121 max: 0.972246
Interface Courant Number mean: 0.0394938 max: 0.717398
deltaT = 0.00454545
Time = 0.213636

smoothSolver:  Solving for alpha.water, Initial residual = 0.0154045, Final residual = 1.82651e-10, No Iterations 4
Phase-1 volume fraction = 0.130191  Min(alpha.water) = -2.36322e-08  Max(alpha.water) = 1
MULES: Correcting alpha.water
MULES: Correcting alpha.water
Phase-1 volume fraction = 0.130192  Min(alpha.water) = -2.36322e-08  Max(alpha.water) = 1
DICPCG:  Solving for p_rgh, Initial residual = 0.0189231, Final residual = 0.000914754, No Iterations 3
time step continuity errors : sum local = 0.00137828, global = 0.000294285, cumulative = 0.00165514
DICPCG:  Solving for p_rgh, Initial residual = 0.00119755, Final residual = 5.0664e-05, No Iterations 8
time step continuity errors : sum local = 7.74512e-05, global = -4.96624e-06, cumulative = 0.00165018
DICPCG:  Solving for p_rgh, Initial residual = 0.000353116, Final residual = 7.56209e-08, No Iterations 57
time step continuity errors : sum local = 1.16008e-07, global = 1.06764e-09, cumulative = 0.00165018
smoothSolver:  Solving for epsilon, Initial residual = 0.0241184, Final residual = 6.07844e-07, No Iterations 7
smoothSolver:  Solving for k, Initial residual = 0.0228228, Final residual = 9.00475e-07, No Iterations 8
ExecutionTime = 1.53 s  ClockTime = 2 s

Courant Number mean: 0.39183 max: 0.971395
Interface Courant Number mean: 0.0412943 max: 0.740037
deltaT = 0.00454545
Time = 0.218182

smoothSolver:  Solving for alpha.water, Initial residual = 0.0157369, Final residual = 1.77651e-10, No Iterations 4
Phase-1 volume fraction = 0.130189  Min(alpha.water) = -2.20511e-08  Max(alpha.water) = 1
MULES: Correcting alpha.water
MULES: Correcting alpha.water
Phase-1 volume fraction = 0.130189  Min(alpha.water) = -2.20511e-08  Max(alpha.water) = 1
DICPCG:  Solving for p_rgh, Initial residual = 0.0203194, Final residual = 0.000984405, No Iterations 3
time step continuity errors : sum local = 0.00144814, global = 0.000319885, cumulative = 0.00197006
DICPCG:  Solving for p_rgh, Initial residual = 0.00128116, Final residual = 4.93237e-05, No Iterations 8
time step continuity errors : sum local = 7.36061e-05, global = -3.17489e-06, cumulative = 0.00196689
DICPCG:  Solving for p_rgh, Initial residual = 0.000374569, Final residual = 7.61862e-08, No Iterations 57
time step continuity errors : sum local = 1.14081e-07, global = 1.9321e-09, cumulative = 0.00196689
smoothSolver:  Solving for epsilon, Initial residual = 0.0238612, Final residual = 6.60373e-07, No Iterations 7
smoothSolver:  Solving for k, Initial residual = 0.0222166, Final residual = 9.576e-07, No Iterations 8
ExecutionTime = 1.56 s  ClockTime = 2 s

Courant Number mean: 0.398426 max: 0.96966
Interface Courant Number mean: 0.0431591 max: 0.740457
deltaT = 0.00454545
Time = 0.222727

smoothSolver:  Solving for alpha.water, Initial residual = 0.0160487, Final residual = 1.72575e-10, No Iterations 4
Phase-1 volume fraction = 0.130184  Min(alpha.water) = -1.97966e-08  Max(alpha.water) = 1
MULES: Correcting alpha.water
MULES: Correcting alpha.water
Phase-1 volume fraction = 0.130185  Min(alpha.water) = -1.97966e-08  Max(alpha.water) = 1
DICPCG:  Solving for p_rgh, Initial residual = 0.0206421, Final residual = 0.000731657, No Iterations 4
time step continuity errors : sum local = 0.00104202, global = 0.00019221, cumulative = 0.0021591
DICPCG:  Solving for p_rgh, Initial residual = 0.000929423, Final residual = 4.4541e-05, No Iterations 8
time step continuity errors : sum local = 6.4277e-05, global = -2.09528e-06, cumulative = 0.002157
DICPCG:  Solving for p_rgh, Initial residual = 0.000255558, Final residual = 7.91949e-08, No Iterations 56
time step continuity errors : sum local = 1.14534e-07, global = 1.0479e-09, cumulative = 0.00215701
smoothSolver:  Solving for epsilon, Initial residual = 0.0235754, Final residual = 7.1523e-07, No Iterations 7
smoothSolver:  Solving for k, Initial residual = 0.0215929, Final residual = 3.22628e-07, No Iterations 9
ExecutionTime = 1.59 s  ClockTime = 2 s

Courant Number mean: 0.404813 max: 0.98703
Interface Courant Number mean: 0.0456099 max: 0.764985
deltaT = 0.00454545
Time = 0.227273

smoothSolver:  Solving for alpha.water, Initial residual = 0.016364, Final residual = 1.67308e-10, No Iterations 4
Phase-1 volume fraction = 0.130174  Min(alpha.water) = -1.7327e-08  Max(alpha.water) = 1
MULES: Correcting alpha.water
MULES: Correcting alpha.water
Phase-1 volume fraction = 0.130176  Min(alpha.water) = -1.7327e-08  Max(alpha.water) = 1
DICPCG:  Solving for p_rgh, Initial residual = 0.0221293, Final residual = 0.000708466, No Iterations 4
time step continuity errors : sum local = 0.000974258, global = 0.000141478, cumulative = 0.00229848
DICPCG:  Solving for p_rgh, Initial residual = 0.000898575, Final residual = 4.03886e-05, No Iterations 9
time step continuity errors : sum local = 5.62785e-05, global = -7.46908e-06, cumulative = 0.00229101
DICPCG:  Solving for p_rgh, Initial residual = 0.000236984, Final residual = 9.22608e-08, No Iterations 54
time step continuity errors : sum local = 1.28839e-07, global = 1.15291e-09, cumulative = 0.00229102
smoothSolver:  Solving for epsilon, Initial residual = 0.0232852, Final residual = 7.71372e-07, No Iterations 7
smoothSolver:  Solving for k, Initial residual = 0.0210138, Final residual = 3.42365e-07, No Iterations 9
ExecutionTime = 1.62 s  ClockTime = 2 s

Courant Number mean: 0.411014 max: 1.03485
Interface Courant Number mean: 0.0466957 max: 0.820263
deltaT = 0.00378788
Time = 0.231061

smoothSolver:  Solving for alpha.water, Initial residual = 0.0139133, Final residual = 7.1183e-09, No Iterations 3
Phase-1 volume fraction = 0.130164  Min(alpha.water) = -1.52959e-08  Max(alpha.water) = 1
MULES: Correcting alpha.water
MULES: Correcting alpha.water
Phase-1 volume fraction = 0.130167  Min(alpha.water) = -1.81324e-08  Max(alpha.water) = 1
DICPCG:  Solving for p_rgh, Initial residual = 0.0214918, Final residual = 0.000958831, No Iterations 3
time step continuity errors : sum local = 0.00101896, global = 0.000191958, cumulative = 0.00248297
DICPCG:  Solving for p_rgh, Initial residual = 0.00121001, Final residual = 4.93181e-05, No Iterations 8
time step continuity errors : sum local = 5.29542e-05, global = -2.03794e-06, cumulative = 0.00248094
DICPCG:  Solving for p_rgh, Initial residual = 0.000321121, Final residual = 7.80422e-08, No Iterations 52
time step continuity errors : sum local = 8.39576e-08, global = -1.10652e-08, cumulative = 0.00248092
smoothSolver:  Solving for epsilon, Initial residual = 0.0192712, Final residual = 9.41095e-07, No Iterations 6
smoothSolver:  Solving for k, Initial residual = 0.0171257, Final residual = 9.67379e-07, No Iterations 7
ExecutionTime = 1.66 s  ClockTime = 2 s

Courant Number mean: 0.346945 max: 0.883849
Interface Courant Number mean: 0.0402172 max: 0.752081
deltaT = 0.00378788
Time = 0.234848

smoothSolver:  Solving for alpha.water, Initial residual = 0.0141433, Final residual = 7.07461e-09, No Iterations 3
Phase-1 volume fraction = 0.130147  Min(alpha.water) = -1.33796e-08  Max(alpha.water) = 1
MULES: Correcting alpha.water
MULES: Correcting alpha.water
Phase-1 volume fraction = 0.130151  Min(alpha.water) = -1.33796e-08  Max(alpha.water) = 1
DICPCG:  Solving for p_rgh, Initial residual = 0.0213069, Final residual = 0.00105716, No Iterations 3
time step continuity errors : sum local = 0.00109972, global = 0.00017758, cumulative = 0.0026585
DICPCG:  Solving for p_rgh, Initial residual = 0.00132529, Final residual = 6.52487e-05, No Iterations 7
time step continuity errors : sum local = 6.84658e-05, global = -2.96654e-06, cumulative = 0.00265554
DICPCG:  Solving for p_rgh, Initial residual = 0.000350947, Final residual = 8.27885e-08, No Iterations 56
time step continuity errors : sum local = 8.70654e-08, global = -2.14662e-09, cumulative = 0.00265554
smoothSolver:  Solving for epsilon, Initial residual = 0.019118, Final residual = 9.93511e-07, No Iterations 6
smoothSolver:  Solving for k, Initial residual = 0.0168011, Final residual = 9.98679e-07, No Iterations 7
ExecutionTime = 1.68 s  ClockTime = 2 s

Courant Number mean: 0.351085 max: 0.888775
Interface Courant Number mean: 0.0400941 max: 0.854381
deltaT = 0.00378788
Time = 0.238636

smoothSolver:  Solving for alpha.water, Initial residual = 0.0143375, Final residual = 7.02864e-09, No Iterations 3
Phase-1 volume fraction = 0.130118  Min(alpha.water) = -1.16318e-08  Max(alpha.water) = 1
MULES: Correcting alpha.water
MULES: Correcting alpha.water
Phase-1 volume fraction = 0.130124  Min(alpha.water) = -9.70303e-08  Max(alpha.water) = 1
DICPCG:  Solving for p_rgh, Initial residual = 0.0234842, Final residual = 0.00104906, No Iterations 3
time step continuity errors : sum local = 0.00106854, global = 0.000150601, cumulative = 0.00280614
DICPCG:  Solving for p_rgh, Initial residual = 0.00130403, Final residual = 6.41063e-05, No Iterations 7
time step continuity errors : sum local = 6.58728e-05, global = -3.22094e-06, cumulative = 0.00280292
DICPCG:  Solving for p_rgh, Initial residual = 0.000347407, Final residual = 9.04281e-08, No Iterations 56
time step continuity errors : sum local = 9.30906e-08, global = -2.18289e-09, cumulative = 0.00280291
smoothSolver:  Solving for epsilon, Initial residual = 0.0189512, Final residual = 2.24688e-07, No Iterations 7
smoothSolver:  Solving for k, Initial residual = 0.0164942, Final residual = 2.86803e-07, No Iterations 8
ExecutionTime = 1.71 s  ClockTime = 2 s

Courant Number mean: 0.354941 max: 0.882005
Interface Courant Number mean: 0.0410535 max: 0.882005
deltaT = 0.00378788
Time = 0.242424

smoothSolver:  Solving for alpha.water, Initial residual = 0.0145618, Final residual = 6.97904e-09, No Iterations 3
Phase-1 volume fraction = 0.130066  Min(alpha.water) = -1.00793e-08  Max(alpha.water) = 1
MULES: Correcting alpha.water
MULES: Correcting alpha.water
Phase-1 volume fraction = 0.130077  Min(alpha.water) = -1.00793e-08  Max(alpha.water) = 1
DICPCG:  Solving for p_rgh, Initial residual = 0.0242057, Final residual = 0.00108279, No Iterations 3
time step continuity errors : sum local = 0.00108002, global = 0.000106548, cumulative = 0.00290946
DICPCG:  Solving for p_rgh, Initial residual = 0.00134364, Final residual = 6.49066e-05, No Iterations 7
time step continuity errors : sum local = 6.50688e-05, global = -6.3594e-06, cumulative = 0.0029031
DICPCG:  Solving for p_rgh, Initial residual = 0.000345629, Final residual = 9.01145e-08, No Iterations 56
time step continuity errors : sum local = 9.04789e-08, global = -2.53118e-09, cumulative = 0.0029031
smoothSolver:  Solving for epsilon, Initial residual = 0.0188243, Final residual = 2.37214e-07, No Iterations 7
smoothSolver:  Solving for k, Initial residual = 0.0162128, Final residual = 2.94557e-07, No Iterations 8
ExecutionTime = 1.74 s  ClockTime = 2 s

Courant Number mean: 0.35854 max: 0.867908
Interface Courant Number mean: 0.0425008 max: 0.867908
deltaT = 0.00378788
Time = 0.246212

smoothSolver:  Solving for alpha.water, Initial residual = 0.0147235, Final residual = 6.91115e-09, No Iterations 3
Phase-1 volume fraction = 0.129974  Min(alpha.water) = -8.7304e-09  Max(alpha.water) = 1
MULES: Correcting alpha.water
MULES: Correcting alpha.water
Phase-1 volume fraction = 0.129993  Min(alpha.water) = -8.7304e-09  Max(alpha.water) = 1
DICPCG:  Solving for p_rgh, Initial residual = 0.0249114, Final residual = 0.00100102, No Iterations 3
time step continuity errors : sum local = 0.00098359, global = 7.42307e-05, cumulative = 0.00297733
DICPCG:  Solving for p_rgh, Initial residual = 0.0012521, Final residual = 5.77854e-05, No Iterations 8
time step continuity errors : sum local = 5.69858e-05, global = -7.63215e-06, cumulative = 0.0029697
DICPCG:  Solving for p_rgh, Initial residual = 0.000322158, Final residual = 9.98222e-08, No Iterations 56
time step continuity errors : sum local = 9.85029e-08, global = -1.78542e-09, cumulative = 0.0029697
smoothSolver:  Solving for epsilon, Initial residual = 0.0187364, Final residual = 2.49934e-07, No Iterations 7
smoothSolver:  Solving for k, Initial residual = 0.0159672, Final residual = 3.02227e-07, No Iterations 8
ExecutionTime = 1.77 s  ClockTime = 2 s

Courant Number mean: 0.361841 max: 0.880024
Interface Courant Number mean: 0.0433915 max: 0.852428
deltaT = 0.00378788
Time = 0.25

[...]
time step continuity errors : sum local = 0.000146378, global = 5.60921e-05, cumulative = -0.00198603
DICPCG:  Solving for p_rgh, Initial residual = 0.00101161, Final residual = 8.89649e-08, No Iterations 64
time step continuity errors : sum local = 8.0237e-08, global = -2.46455e-10, cumulative = -0.00198603
smoothSolver:  Solving for epsilon, Initial residual = 0.0146328, Final residual = 4.01002e-07, No Iterations 6
smoothSolver:  Solving for k, Initial residual = 0.0134423, Final residual = 3.76814e-07, No Iterations 7
ExecutionTime = 8.3 s  ClockTime = 11 s

Courant Number mean: 0.231275 max: 0.816976
Interface Courant Number mean: 0.027676 max: 0.781952
deltaT = 0.00555556
Time = 0.927778

smoothSolver:  Solving for alpha.water, Initial residual = 0.0149897, Final residual = 7.98393e-10, No Iterations 4
Phase-1 volume fraction = 0.0637679  Min(alpha.water) = -6.47049e-10  Max(alpha.water) = 0.99683
MULES: Correcting alpha.water
MULES: Correcting alpha.water
Phase-1 volume fraction = 0.0637706  Min(alpha.water) = -1.68204e-05  Max(alpha.water) = 0.997457
DICPCG:  Solving for p_rgh, Initial residual = 0.0548632, Final residual = 0.00222949, No Iterations 2
time step continuity errors : sum local = 0.00206596, global = -4.63206e-05, cumulative = -0.00203235
DICPCG:  Solving for p_rgh, Initial residual = 0.00368373, Final residual = 0.000183584, No Iterations 9
time step continuity errors : sum local = 0.000166361, global = -5.27455e-05, cumulative = -0.0020851
DICPCG:  Solving for p_rgh, Initial residual = 0.00107438, Final residual = 8.84891e-08, No Iterations 68
time step continuity errors : sum local = 8.00862e-08, global = 5.34585e-10, cumulative = -0.0020851
smoothSolver:  Solving for epsilon, Initial residual = 0.0146489, Final residual = 3.54235e-07, No Iterations 6
smoothSolver:  Solving for k, Initial residual = 0.0134115, Final residual = 3.70806e-07, No Iterations 7
ExecutionTime = 8.33 s  ClockTime = 11 s

Courant Number mean: 0.231833 max: 0.798596
Interface Courant Number mean: 0.0286171 max: 0.653933
deltaT = 0.00555556
Time = 0.933333

smoothSolver:  Solving for alpha.water, Initial residual = 0.0153365, Final residual = 1.02141e-09, No Iterations 4
Phase-1 volume fraction = 0.0634191  Min(alpha.water) = -4.15297e-06  Max(alpha.water) = 0.996868
MULES: Correcting alpha.water
MULES: Correcting alpha.water
Phase-1 volume fraction = 0.063421  Min(alpha.water) = -1.03814e-05  Max(alpha.water) = 0.996992
DICPCG:  Solving for p_rgh, Initial residual = 0.0527694, Final residual = 0.00224433, No Iterations 2
time step continuity errors : sum local = 0.00205263, global = 4.22988e-05, cumulative = -0.0020428
DICPCG:  Solving for p_rgh, Initial residual = 0.00373621, Final residual = 0.000182305, No Iterations 7
time step continuity errors : sum local = 0.000164432, global = 3.62972e-05, cumulative = -0.0020065
DICPCG:  Solving for p_rgh, Initial residual = 0.00111628, Final residual = 6.38995e-08, No Iterations 68
time step continuity errors : sum local = 5.79047e-08, global = -1.09298e-09, cumulative = -0.0020065
smoothSolver:  Solving for epsilon, Initial residual = 0.0142072, Final residual = 3.36056e-07, No Iterations 6
smoothSolver:  Solving for k, Initial residual = 0.0130995, Final residual = 3.81466e-07, No Iterations 7
ExecutionTime = 8.36 s  ClockTime = 11 s

Courant Number mean: 0.231908 max: 0.779322
Interface Courant Number mean: 0.0283976 max: 0.773564
deltaT = 0.00555556
Time = 0.938889

smoothSolver:  Solving for alpha.water, Initial residual = 0.0159314, Final residual = 1.29148e-09, No Iterations 4
Phase-1 volume fraction = 0.063053  Min(alpha.water) = -2.87309e-10  Max(alpha.water) = 0.996879
MULES: Correcting alpha.water
MULES: Correcting alpha.water
Phase-1 volume fraction = 0.0630563  Min(alpha.water) = -3.31561e-05  Max(alpha.water) = 0.997051
DICPCG:  Solving for p_rgh, Initial residual = 0.0514007, Final residual = 0.00211808, No Iterations 2
time step continuity errors : sum local = 0.00196276, global = -5.89836e-05, cumulative = -0.00206549
DICPCG:  Solving for p_rgh, Initial residual = 0.00354066, Final residual = 0.000174848, No Iterations 6
time step continuity errors : sum local = 0.000158538, global = -5.9396e-05, cumulative = -0.00212488
DICPCG:  Solving for p_rgh, Initial residual = 0.00109021, Final residual = 6.53516e-08, No Iterations 68
time step continuity errors : sum local = 5.91748e-08, global = -7.81052e-10, cumulative = -0.00212488
smoothSolver:  Solving for epsilon, Initial residual = 0.0142759, Final residual = 3.53663e-07, No Iterations 6
smoothSolver:  Solving for k, Initial residual = 0.0132232, Final residual = 4.29301e-07, No Iterations 7
ExecutionTime = 8.39 s  ClockTime = 11 s

Courant Number mean: 0.232628 max: 0.758725
Interface Courant Number mean: 0.0281296 max: 0.685599
deltaT = 0.00555556
Time = 0.944444

smoothSolver:  Solving for alpha.water, Initial residual = 0.0162722, Final residual = 1.64073e-09, No Iterations 4
Phase-1 volume fraction = 0.0626736  Min(alpha.water) = -1.00131e-10  Max(alpha.water) = 0.996908
MULES: Correcting alpha.water
MULES: Correcting alpha.water
Phase-1 volume fraction = 0.0626749  Min(alpha.water) = -2.11879e-05  Max(alpha.water) = 0.997095
DICPCG:  Solving for p_rgh, Initial residual = 0.0547251, Final residual = 0.00218589, No Iterations 2
time step continuity errors : sum local = 0.00199901, global = 3.12212e-05, cumulative = -0.00209366
DICPCG:  Solving for p_rgh, Initial residual = 0.00370413, Final residual = 0.000174124, No Iterations 8
time step continuity errors : sum local = 0.000156586, global = 2.75225e-05, cumulative = -0.00206614
DICPCG:  Solving for p_rgh, Initial residual = 0.00112429, Final residual = 8.15093e-08, No Iterations 67
time step continuity errors : sum local = 7.36624e-08, global = -1.4135e-09, cumulative = -0.00206614
smoothSolver:  Solving for epsilon, Initial residual = 0.014263, Final residual = 3.69871e-07, No Iterations 6
smoothSolver:  Solving for k, Initial residual = 0.0132056, Final residual = 4.7293e-07, No Iterations 7
ExecutionTime = 8.42 s  ClockTime = 11 s

Courant Number mean: 0.233091 max: 0.753882
Interface Courant Number mean: 0.0291834 max: 0.753882
deltaT = 0.00555556
Time = 0.95

smoothSolver:  Solving for alpha.water, Initial residual = 0.0170696, Final residual = 2.04763e-09, No Iterations 4
Phase-1 volume fraction = 0.0622695  Min(alpha.water) = -8.2681e-11  Max(alpha.water) = 0.996949
MULES: Correcting alpha.water
MULES: Correcting alpha.water
Phase-1 volume fraction = 0.0622725  Min(alpha.water) = -1.08783e-05  Max(alpha.water) = 0.997198
DICPCG:  Solving for p_rgh, Initial residual = 0.0585339, Final residual = 0.00256129, No Iterations 2
time step continuity errors : sum local = 0.00237735, global = -1.76873e-05, cumulative = -0.00208383
DICPCG:  Solving for p_rgh, Initial residual = 0.00413725, Final residual = 0.000183835, No Iterations 9
time step continuity errors : sum local = 0.000166584, global = -7.50471e-06, cumulative = -0.00209133
DICPCG:  Solving for p_rgh, Initial residual = 0.00126965, Final residual = 7.34302e-08, No Iterations 68
time step continuity errors : sum local = 6.64413e-08, global = -6.54169e-10, cumulative = -0.00209133
smoothSolver:  Solving for epsilon, Initial residual = 0.0144869, Final residual = 3.82412e-07, No Iterations 6
smoothSolver:  Solving for k, Initial residual = 0.0133991, Final residual = 5.02908e-07, No Iterations 7
ExecutionTime = 8.47 s  ClockTime = 11 s

Courant Number mean: 0.23382 max: 0.730173
Interface Courant Number mean: 0.0288785 max: 0.730173
deltaT = 0.00625
Time = 0.95625

smoothSolver:  Solving for alpha.water, Initial residual = 0.0195786, Final residual = 6.02551e-09, No Iterations 4
Phase-1 volume fraction = 0.0617877  Min(alpha.water) = -8.26139e-11  Max(alpha.water) = 0.996997
MULES: Correcting alpha.water
MULES: Correcting alpha.water
Phase-1 volume fraction = 0.0617899  Min(alpha.water) = -2.30457e-05  Max(alpha.water) = 0.997231
DICPCG:  Solving for p_rgh, Initial residual = 0.0602785, Final residual = 0.00266817, No Iterations 2
time step continuity errors : sum local = 0.00282401, global = 5.32061e-06, cumulative = -0.00208601
DICPCG:  Solving for p_rgh, Initial residual = 0.00442033, Final residual = 0.000200817, No Iterations 7
time step continuity errors : sum local = 0.000207587, global = -3.16742e-05, cumulative = -0.00211769
DICPCG:  Solving for p_rgh, Initial residual = 0.00140998, Final residual = 8.73009e-08, No Iterations 67
time step continuity errors : sum local = 9.07419e-08, global = -1.71755e-09, cumulative = -0.00211769
smoothSolver:  Solving for epsilon, Initial residual = 0.0156621, Final residual = 8.66102e-07, No Iterations 6
smoothSolver:  Solving for k, Initial residual = 0.014611, Final residual = 4.21543e-07, No Iterations 8
ExecutionTime = 8.49 s  ClockTime = 11 s

Courant Number mean: 0.264385 max: 0.847798
Interface Courant Number mean: 0.0351517 max: 0.847798
deltaT = 0.00625
Time = 0.9625

smoothSolver:  Solving for alpha.water, Initial residual = 0.0206654, Final residual = 7.54874e-09, No Iterations 4
Phase-1 volume fraction = 0.0612455  Min(alpha.water) = -8.25465e-11  Max(alpha.water) = 0.997074
MULES: Correcting alpha.water
MULES: Correcting alpha.water
Phase-1 volume fraction = 0.0612488  Min(alpha.water) = -1.57797e-05  Max(alpha.water) = 0.997322
DICPCG:  Solving for p_rgh, Initial residual = 0.0693106, Final residual = 0.00297357, No Iterations 2
time step continuity errors : sum local = 0.00312835, global = 1.51788e-06, cumulative = -0.00211617
DICPCG:  Solving for p_rgh, Initial residual = 0.00494184, Final residual = 0.000208666, No Iterations 9
time step continuity errors : sum local = 0.000212669, global = 3.01069e-05, cumulative = -0.00208606
DICPCG:  Solving for p_rgh, Initial residual = 0.00157211, Final residual = 9.56846e-08, No Iterations 67
time step continuity errors : sum local = 9.7383e-08, global = -1.06806e-09, cumulative = -0.00208606
smoothSolver:  Solving for epsilon, Initial residual = 0.0161158, Final residual = 9.46194e-07, No Iterations 6
smoothSolver:  Solving for k, Initial residual = 0.0150297, Final residual = 4.84642e-07, No Iterations 8
ExecutionTime = 8.52 s  ClockTime = 11 s

Courant Number mean: 0.265154 max: 0.877699
Interface Courant Number mean: 0.0360094 max: 0.877699
deltaT = 0.00625
Time = 0.96875

smoothSolver:  Solving for alpha.water, Initial residual = 0.0208046, Final residual = 9.36085e-09, No Iterations 4
Phase-1 volume fraction = 0.0607075  Min(alpha.water) = -8.24694e-11  Max(alpha.water) = 0.997059
MULES: Correcting alpha.water
MULES: Correcting alpha.water
Phase-1 volume fraction = 0.0607093  Min(alpha.water) = -3.57963e-05  Max(alpha.water) = 0.997326
DICPCG:  Solving for p_rgh, Initial residual = 0.0698639, Final residual = 0.0031249, No Iterations 2
time step continuity errors : sum local = 0.00323233, global = 6.25799e-05, cumulative = -0.00202348
DICPCG:  Solving for p_rgh, Initial residual = 0.0050826, Final residual = 0.000228382, No Iterations 8
time step continuity errors : sum local = 0.000230164, global = 2.76653e-05, cumulative = -0.00199582
DICPCG:  Solving for p_rgh, Initial residual = 0.0016744, Final residual = 9.94918e-08, No Iterations 69
time step continuity errors : sum local = 1.00908e-07, global = -5.62907e-10, cumulative = -0.00199582
smoothSolver:  Solving for epsilon, Initial residual = 0.0156577, Final residual = 9.87495e-07, No Iterations 6
smoothSolver:  Solving for k, Initial residual = 0.0149159, Final residual = 5.15158e-07, No Iterations 8
ExecutionTime = 8.55 s  ClockTime = 11 s

Courant Number mean: 0.266176 max: 0.908533
Interface Courant Number mean: 0.0358201 max: 0.908533
deltaT = 0.00625
Time = 0.975

smoothSolver:  Solving for alpha.water, Initial residual = 0.0212972, Final residual = 2.92645e-10, No Iterations 5
Phase-1 volume fraction = 0.0601213  Min(alpha.water) = -8.23742e-11  Max(alpha.water) = 0.99705
MULES: Correcting alpha.water
MULES: Correcting alpha.water
Phase-1 volume fraction = 0.0601243  Min(alpha.water) = -1.91696e-05  Max(alpha.water) = 0.997133
DICPCG:  Solving for p_rgh, Initial residual = 0.0765118, Final residual = 0.00334978, No Iterations 2
time step continuity errors : sum local = 0.00348498, global = -2.61834e-05, cumulative = -0.002022
DICPCG:  Solving for p_rgh, Initial residual = 0.00546661, Final residual = 0.000240168, No Iterations 9
time step continuity errors : sum local = 0.000240398, global = -1.57531e-05, cumulative = -0.00203776
DICPCG:  Solving for p_rgh, Initial residual = 0.00182793, Final residual = 6.9902e-08, No Iterations 67
time step continuity errors : sum local = 6.98311e-08, global = -1.68986e-10, cumulative = -0.00203776
smoothSolver:  Solving for epsilon, Initial residual = 0.0161905, Final residual = 3.22846e-07, No Iterations 7
smoothSolver:  Solving for k, Initial residual = 0.0149826, Final residual = 5.69288e-07, No Iterations 8
ExecutionTime = 8.58 s  ClockTime = 11 s

Courant Number mean: 0.267375 max: 0.938348
Interface Courant Number mean: 0.0375082 max: 0.938348
deltaT = 0.00625
Time = 0.98125

smoothSolver:  Solving for alpha.water, Initial residual = 0.0218463, Final residual = 3.71779e-10, No Iterations 5
Phase-1 volume fraction = 0.0595136  Min(alpha.water) = -8.22635e-11  Max(alpha.water) = 0.997046
MULES: Correcting alpha.water
MULES: Correcting alpha.water
Phase-1 volume fraction = 0.0595196  Min(alpha.water) = -1.23917e-05  Max(alpha.water) = 0.997064
DICPCG:  Solving for p_rgh, Initial residual = 0.0799723, Final residual = 0.00372876, No Iterations 2
time step continuity errors : sum local = 0.0038209, global = 3.41423e-05, cumulative = -0.00200361
DICPCG:  Solving for p_rgh, Initial residual = 0.00592307, Final residual = 0.000255587, No Iterations 8
time step continuity errors : sum local = 0.000254678, global = 7.6889e-06, cumulative = -0.00199593
DICPCG:  Solving for p_rgh, Initial residual = 0.00194224, Final residual = 9.82198e-08, No Iterations 67
time step continuity errors : sum local = 9.84179e-08, global = -2.97811e-09, cumulative = -0.00199593
smoothSolver:  Solving for epsilon, Initial residual = 0.0153171, Final residual = 3.59171e-07, No Iterations 7
smoothSolver:  Solving for k, Initial residual = 0.0142069, Final residual = 6.17199e-07, No Iterations 8
ExecutionTime = 8.61 s  ClockTime = 12 s

Courant Number mean: 0.268621 max: 0.970519
Interface Courant Number mean: 0.0370564 max: 0.970519
deltaT = 0.00625
Time = 0.9875

smoothSolver:  Solving for alpha.water, Initial residual = 0.0222159, Final residual = 4.61821e-10, No Iterations 5
Phase-1 volume fraction = 0.0588955  Min(alpha.water) = -8.21358e-11  Max(alpha.water) = 0.997054
MULES: Correcting alpha.water
MULES: Correcting alpha.water
Phase-1 volume fraction = 0.058897  Min(alpha.water) = -3.54809e-05  Max(alpha.water) = 0.997054
DICPCG:  Solving for p_rgh, Initial residual = 0.0769393, Final residual = 0.00348832, No Iterations 2
time step continuity errors : sum local = 0.00357475, global = -6.8119e-05, cumulative = -0.00206405
DICPCG:  Solving for p_rgh, Initial residual = 0.00577711, Final residual = 0.000270438, No Iterations 9
time step continuity errors : sum local = 0.00026626, global = -5.40467e-05, cumulative = -0.00211809
DICPCG:  Solving for p_rgh, Initial residual = 0.00201915, Final residual = 7.48843e-08, No Iterations 70
time step continuity errors : sum local = 7.35307e-08, global = 8.84487e-10, cumulative = -0.00211809
smoothSolver:  Solving for epsilon, Initial residual = 0.0157876, Final residual = 4.3462e-07, No Iterations 7
smoothSolver:  Solving for k, Initial residual = 0.0145179, Final residual = 7.41341e-07, No Iterations 8
ExecutionTime = 8.64 s  ClockTime = 12 s

Courant Number mean: 0.270063 max: 1.00704
Interface Courant Number mean: 0.0391517 max: 1.00704
deltaT = 0.00416667
Time = 0.991667

smoothSolver:  Solving for alpha.water, Initial residual = 0.0150004, Final residual = 9.81728e-10, No Iterations 4
Phase-1 volume fraction = 0.058476  Min(alpha.water) = -8.2045e-11  Max(alpha.water) = 0.997052
MULES: Correcting alpha.water
MULES: Correcting alpha.water
Phase-1 volume fraction = 0.0584786  Min(alpha.water) = -7.39861e-06  Max(alpha.water) = 0.997099
DICPCG:  Solving for p_rgh, Initial residual = 0.0641082, Final residual = 0.00295928, No Iterations 2
time step continuity errors : sum local = 0.00177353, global = 2.87395e-05, cumulative = -0.00208935
DICPCG:  Solving for p_rgh, Initial residual = 0.00457959, Final residual = 0.000201944, No Iterations 8
time step continuity errors : sum local = 0.000118721, global = 2.69267e-05, cumulative = -0.00206243
DICPCG:  Solving for p_rgh, Initial residual = 0.00135336, Final residual = 6.88074e-08, No Iterations 67
time step continuity errors : sum local = 4.06361e-08, global = 2.15091e-10, cumulative = -0.00206243
smoothSolver:  Solving for epsilon, Initial residual = 0.010056, Final residual = 5.78391e-07, No Iterations 5
smoothSolver:  Solving for k, Initial residual = 0.00908535, Final residual = 5.77043e-07, No Iterations 6
ExecutionTime = 8.67 s  ClockTime = 12 s

Courant Number mean: 0.180187 max: 0.688649
Interface Courant Number mean: 0.0252267 max: 0.688649
deltaT = 0.00416667
Time = 0.995833

smoothSolver:  Solving for alpha.water, Initial residual = 0.0148713, Final residual = 1.10044e-09, No Iterations 4
Phase-1 volume fraction = 0.0581439  Min(alpha.water) = -8.1947e-11  Max(alpha.water) = 0.99705
MULES: Correcting alpha.water
MULES: Correcting alpha.water
Phase-1 volume fraction = 0.0581447  Min(alpha.water) = -2.79985e-05  Max(alpha.water) = 0.997055
DICPCG:  Solving for p_rgh, Initial residual = 0.0666251, Final residual = 0.00284429, No Iterations 2
time step continuity errors : sum local = 0.00172507, global = -4.76978e-05, cumulative = -0.00211012
DICPCG:  Solving for p_rgh, Initial residual = 0.00455003, Final residual = 0.000218824, No Iterations 14
time step continuity errors : sum local = 0.000128373, global = -3.11522e-05, cumulative = -0.00214128
DICPCG:  Solving for p_rgh, Initial residual = 0.00143139, Final residual = 9.70129e-08, No Iterations 63
time step continuity errors : sum local = 5.66955e-08, global = -1.2617e-09, cumulative = -0.00214128
smoothSolver:  Solving for epsilon, Initial residual = 0.0104818, Final residual = 6.57914e-07, No Iterations 5
smoothSolver:  Solving for k, Initial residual = 0.00909857, Final residual = 6.55189e-07, No Iterations 6
ExecutionTime = 8.7 s  ClockTime = 12 s

Courant Number mean: 0.180913 max: 0.708751
Interface Courant Number mean: 0.0260974 max: 0.708751
deltaT = 0.00416667
Time = 1

smoothSolver:  Solving for alpha.water, Initial residual = 0.014995, Final residual = 1.19626e-09, No Iterations 4
Phase-1 volume fraction = 0.0577487  Min(alpha.water) = -8.18436e-11  Max(alpha.water) = 0.997049
MULES: Correcting alpha.water
MULES: Correcting alpha.water
Phase-1 volume fraction = 0.0577501  Min(alpha.water) = -2.04167e-05  Max(alpha.water) = 0.99706
DICPCG:  Solving for p_rgh, Initial residual = 0.0727871, Final residual = 0.00332715, No Iterations 2
time step continuity errors : sum local = 0.00198805, global = 7.64169e-06, cumulative = -0.00213364
DICPCG:  Solving for p_rgh, Initial residual = 0.00500487, Final residual = 0.000223755, No Iterations 9
time step continuity errors : sum local = 0.000130535, global = 1.99905e-06, cumulative = -0.00213164
DICPCG:  Solving for p_rgh, Initial residual = 0.00152435, Final residual = 9.6421e-08, No Iterations 69
time step continuity errors : sum local = 5.64701e-08, global = 5.06459e-10, cumulative = -0.00213164
smoothSolver:  Solving for epsilon, Initial residual = 0.0101826, Final residual = 7.58659e-07, No Iterations 5
smoothSolver:  Solving for k, Initial residual = 0.00911949, Final residual = 7.45149e-07, No Iterations 6
ExecutionTime = 8.75 s  ClockTime = 12 s

End

