/*---------------------------------------------------------------------------*\
  =========                 |
  \\      /  F ield         | OpenFOAM: The Open Source CFD Toolbox
   \\    /   O peration     | Website:  https://openfoam.org
    \\  /    A nd           | Version:  9
     \\/     M anipulation  |
\*---------------------------------------------------------------------------*/
Build  : 9-a0f1846504f2
Exec   : interFoam -parallel
Date   : Nov 17 2021
Time   : 13:46:35
Host   : "tw-Satellite-C45t-A"
PID    : 14220
I/O    : uncollated
Case   : /home/tw/OpenFOAM/tw-9/run/curso-cfd/04-damBreak/damBreakFine
nProcs : 4
Slaves : 
3
(
"tw-Satellite-C45t-A.14221"
"tw-Satellite-C45t-A.14222"
"tw-Satellite-C45t-A.14223"
)

Pstream initialised with:
    floatTransfer      : 0
    nProcsSimpleSum    : 0
    commsType          : nonBlocking
    polling iterations : 0
sigFpe : Enabling floating point exception trapping (FOAM_SIGFPE).
fileModificationChecking : Monitoring run-time modified files using timeStampMaster (fileModificationSkew 10)
allowSystemOperations : Allowing user-supplied system call operations

// * * * * * * * * * * * * * * * * * * * * * * * * * * * * * * * * * * * * * //
Create time

Create mesh for time = 0


PIMPLE: No convergence criteria found


PIMPLE: Operating solver in transient mode with 1 outer corrector
PIMPLE: Operating solver in PISO mode


Reading field p_rgh

Reading field U

Reading/calculating face flux field phi

Reading transportProperties

Selecting incompressible transport model Newtonian
Selecting incompressible transport model Newtonian
No phase change: phaseChangeProperties not found
Selecting phaseChange model none
Selecting turbulence model type RAS
Selecting RAS turbulence model kEpsilon
RAS
{
    model           kEpsilon;
    turbulence      on;
    printCoeffs     on;
    Cmu             0.09;
    C1              1.44;
    C2              1.92;
    C3              0;
    sigmak          1;
    sigmaEps        1.3;
}


Reading g

Reading hRef
Calculating field g.h

No MRF models present

No fvModels present
No fvConstraints present
DICPCG:  Solving for pcorr, Initial residual = 0, Final residual = 0, No Iterations 0
time step continuity errors : sum local = 0, global = 0, cumulative = 0
Courant Number mean: 0 max: 0

Starting time loop

Courant Number mean: 0 max: 0
Interface Courant Number mean: 0 max: 0
deltaT = 0.000595238
Time = 0.000595238

smoothSolver:  Solving for alpha.water, Initial residual = 0, Final residual = 0, No Iterations 0
Phase-1 volume fraction = 0.124752  Min(alpha.water) = 0  Max(alpha.water) = 1
MULES: Correcting alpha.water
MULES: Correcting alpha.water
Phase-1 volume fraction = 0.124752  Min(alpha.water) = 0  Max(alpha.water) = 1
DICPCG:  Solving for p_rgh, Initial residual = 1, Final residual = 0.048907, No Iterations 5
time step continuity errors : sum local = 0.000107673, global = -1.92761e-14, cumulative = -1.92761e-14
DICPCG:  Solving for p_rgh, Initial residual = 0.00550138, Final residual = 0.000268522, No Iterations 26
time step continuity errors : sum local = 5.71954e-06, global = -1.43938e-06, cumulative = -1.43938e-06
DICPCG:  Solving for p_rgh, Initial residual = 0.000298616, Final residual = 9.51813e-08, No Iterations 115
time step continuity errors : sum local = 5.69667e-09, global = -1.62161e-10, cumulative = -1.43954e-06
smoothSolver:  Solving for epsilon, Initial residual = 0.0251233, Final residual = 1.07503e-07, No Iterations 4
smoothSolver:  Solving for k, Initial residual = 1, Final residual = 1.86039e-07, No Iterations 6
ExecutionTime = 0.15 s  ClockTime = 0 s

Courant Number mean: 0.0002275 max: 0.00202249
Interface Courant Number mean: 0 max: 0
deltaT = 0.000705782
Time = 0.00130102

smoothSolver:  Solving for alpha.water, Initial residual = 7.58124e-06, Final residual = 1.21403e-11, No Iterations 1
Phase-1 volume fraction = 0.124752  Min(alpha.water) = 0  Max(alpha.water) = 1
MULES: Correcting alpha.water
MULES: Correcting alpha.water
Phase-1 volume fraction = 0.124752  Min(alpha.water) = -1.32519e-13  Max(alpha.water) = 1
DICPCG:  Solving for p_rgh, Initial residual = 0.000374462, Final residual = 1.61464e-05, No Iterations 18
time step continuity errors : sum local = 1.08097e-06, global = 4.66747e-07, cumulative = -9.72793e-07
DICPCG:  Solving for p_rgh, Initial residual = 4.29081e-05, Final residual = 1.89831e-06, No Iterations 67
time step continuity errors : sum local = 1.27492e-07, global = -2.74128e-08, cumulative = -1.00021e-06
DICPCG:  Solving for p_rgh, Initial residual = 1.30892e-05, Final residual = 8.96571e-08, No Iterations 90
time step continuity errors : sum local = 5.99519e-09, global = 5.402e-10, cumulative = -9.99666e-07
smoothSolver:  Solving for epsilon, Initial residual = 0.00291076, Final residual = 1.07212e-07, No Iterations 3
smoothSolver:  Solving for k, Initial residual = 0.448281, Final residual = 7.72018e-07, No Iterations 5
ExecutionTime = 0.22 s  ClockTime = 0 s

Courant Number mean: 0.000588875 max: 0.00569526
Interface Courant Number mean: 0 max: 0
deltaT = 0.000839638
Time = 0.00214066

smoothSolver:  Solving for alpha.water, Initial residual = 1.83756e-05, Final residual = 8.05848e-11, No Iterations 1
Phase-1 volume fraction = 0.124752  Min(alpha.water) = 0  Max(alpha.water) = 1
MULES: Correcting alpha.water
MULES: Correcting alpha.water
Phase-1 volume fraction = 0.124752  Min(alpha.water) = -3.77212e-12  Max(alpha.water) = 1
DICPCG:  Solving for p_rgh, Initial residual = 0.000497667, Final residual = 2.47698e-05, No Iterations 14
time step continuity errors : sum local = 2.19535e-06, global = -3.51347e-09, cumulative = -1.00318e-06
DICPCG:  Solving for p_rgh, Initial residual = 4.93499e-05, Final residual = 2.44931e-06, No Iterations 19
time step continuity errors : sum local = 2.18166e-07, global = 5.36303e-09, cumulative = -9.97816e-07
DICPCG:  Solving for p_rgh, Initial residual = 1.27741e-05, Final residual = 9.49158e-08, No Iterations 83
time step continuity errors : sum local = 8.44598e-09, global = -5.08814e-10, cumulative = -9.98325e-07
smoothSolver:  Solving for epsilon, Initial residual = 0.00312085, Final residual = 2.04202e-07, No Iterations 3
smoothSolver:  Solving for k, Initial residual = 0.257133, Final residual = 1.65067e-07, No Iterations 6
ExecutionTime = 0.31 s  ClockTime = 1 s

Courant Number mean: 0.00114379 max: 0.0118158
Interface Courant Number mean: 0 max: 0
deltaT = 0.00099707
Time = 0.00313773

smoothSolver:  Solving for alpha.water, Initial residual = 3.49076e-05, Final residual = 3.73664e-10, No Iterations 1
Phase-1 volume fraction = 0.124752  Min(alpha.water) = -1.37529e-78  Max(alpha.water) = 1
MULES: Correcting alpha.water
MULES: Correcting alpha.water
Phase-1 volume fraction = 0.124752  Min(alpha.water) = -2.28048e-11  Max(alpha.water) = 1
DICPCG:  Solving for p_rgh, Initial residual = 0.000803413, Final residual = 3.61337e-05, No Iterations 12
time step continuity errors : sum local = 4.22441e-06, global = -1.42251e-08, cumulative = -1.01255e-06
DICPCG:  Solving for p_rgh, Initial residual = 6.13616e-05, Final residual = 2.60888e-06, No Iterations 20
time step continuity errors : sum local = 3.06367e-07, global = 5.86624e-10, cumulative = -1.01196e-06
DICPCG:  Solving for p_rgh, Initial residual = 1.60911e-05, Final residual = 9.99192e-08, No Iterations 85
time step continuity errors : sum local = 1.17302e-08, global = -7.103e-10, cumulative = -1.01267e-06
smoothSolver:  Solving for epsilon, Initial residual = 0.00331512, Final residual = 4.03307e-07, No Iterations 3
smoothSolver:  Solving for k, Initial residual = 0.188454, Final residual = 3.26632e-07, No Iterations 6
ExecutionTime = 0.4 s  ClockTime = 1 s

Courant Number mean: 0.00196834 max: 0.0210458
Interface Courant Number mean: 3.20342e-06 max: 0.0210458
deltaT = 0.00117156
Time = 0.00430928

smoothSolver:  Solving for alpha.water, Initial residual = 5.84636e-05, Final residual = 1.41725e-09, No Iterations 1
Phase-1 volume fraction = 0.124752  Min(alpha.water) = -5.10445e-72  Max(alpha.water) = 1
MULES: Correcting alpha.water
MULES: Correcting alpha.water
Phase-1 volume fraction = 0.124752  Min(alpha.water) = -6.00997e-11  Max(alpha.water) = 1
DICPCG:  Solving for p_rgh, Initial residual = 0.00115112, Final residual = 5.22109e-05, No Iterations 10
time step continuity errors : sum local = 7.88135e-06, global = -1.48292e-08, cumulative = -1.0275e-06
DICPCG:  Solving for p_rgh, Initial residual = 7.78561e-05, Final residual = 3.51616e-06, No Iterations 27
time step continuity errors : sum local = 5.32662e-07, global = -1.78513e-08, cumulative = -1.04535e-06
DICPCG:  Solving for p_rgh, Initial residual = 2.09261e-05, Final residual = 7.92885e-08, No Iterations 90
time step continuity errors : sum local = 1.20279e-08, global = 4.70307e-10, cumulative = -1.04488e-06
smoothSolver:  Solving for epsilon, Initial residual = 0.00345561, Final residual = 7.74853e-07, No Iterations 3
smoothSolver:  Solving for k, Initial residual = 0.152267, Final residual = 6.68813e-07, No Iterations 6
ExecutionTime = 0.45 s  ClockTime = 1 s

Courant Number mean: 0.00313603 max: 0.0337709
Interface Courant Number mean: 1.67525e-05 max: 0.0337709
deltaT = 0.00138457
Time = 0.00569385

smoothSolver:  Solving for alpha.water, Initial residual = 9.26184e-05, Final residual = 4.86367e-09, No Iterations 1
Phase-1 volume fraction = 0.124752  Min(alpha.water) = 0  Max(alpha.water) = 1
MULES: Correcting alpha.water
MULES: Correcting alpha.water
Phase-1 volume fraction = 0.124752  Min(alpha.water) = -1.08128e-12  Max(alpha.water) = 1
DICPCG:  Solving for p_rgh, Initial residual = 0.00155887, Final residual = 7.62069e-05, No Iterations 1
time step continuity errors : sum local = 1.49119e-05, global = 3.62157e-08, cumulative = -1.00867e-06
DICPCG:  Solving for p_rgh, Initial residual = 9.56402e-05, Final residual = 4.48756e-06, No Iterations 27
time step continuity errors : sum local = 8.77865e-07, global = -1.75456e-08, cumulative = -1.02621e-06
DICPCG:  Solving for p_rgh, Initial residual = 3.32482e-05, Final residual = 8.52216e-08, No Iterations 94
time step continuity errors : sum local = 1.68072e-08, global = 6.45651e-10, cumulative = -1.02557e-06
smoothSolver:  Solving for epsilon, Initial residual = 0.00358446, Final residual = 2.02771e-07, No Iterations 4
smoothSolver:  Solving for k, Initial residual = 0.1316, Final residual = 3.39231e-07, No Iterations 7
ExecutionTime = 0.51 s  ClockTime = 1 s

Courant Number mean: 0.00483757 max: 0.0513139
Interface Courant Number mean: 6.57149e-05 max: 0.0513139
deltaT = 0.00164097
Time = 0.00733482

smoothSolver:  Solving for alpha.water, Initial residual = 0.000141349, Final residual = 2.85762e-13, No Iterations 2
Phase-1 volume fraction = 0.124752  Min(alpha.water) = 0  Max(alpha.water) = 1
MULES: Correcting alpha.water
MULES: Correcting alpha.water
Phase-1 volume fraction = 0.124752  Min(alpha.water) = -8.60857e-10  Max(alpha.water) = 1
DICPCG:  Solving for p_rgh, Initial residual = 0.0019912, Final residual = 9.83382e-05, No Iterations 1
time step continuity errors : sum local = 2.49263e-05, global = 3.91511e-08, cumulative = -9.86417e-07
DICPCG:  Solving for p_rgh, Initial residual = 0.000121011, Final residual = 5.09826e-06, No Iterations 27
time step continuity errors : sum local = 1.29172e-06, global = -4.18837e-08, cumulative = -1.0283e-06
DICPCG:  Solving for p_rgh, Initial residual = 4.20014e-05, Final residual = 8.12297e-08, No Iterations 95
time step continuity errors : sum local = 2.07669e-08, global = 7.88e-10, cumulative = -1.02751e-06
smoothSolver:  Solving for epsilon, Initial residual = 0.00368583, Final residual = 4.77771e-07, No Iterations 4
smoothSolver:  Solving for k, Initial residual = 0.118663, Final residual = 8.76814e-07, No Iterations 7
ExecutionTime = 0.56 s  ClockTime = 2 s

Courant Number mean: 0.00727586 max: 0.0749653
Interface Courant Number mean: 0.000118435 max: 0.0749653
deltaT = 0.00193933
Time = 0.00927415

smoothSolver:  Solving for alpha.water, Initial residual = 0.000209313, Final residual = 2.92838e-12, No Iterations 2
Phase-1 volume fraction = 0.124752  Min(alpha.water) = 0  Max(alpha.water) = 1
MULES: Correcting alpha.water
MULES: Correcting alpha.water
Phase-1 volume fraction = 0.124752  Min(alpha.water) = -4.53358e-11  Max(alpha.water) = 1
DICPCG:  Solving for p_rgh, Initial residual = 0.002438, Final residual = 5.61387e-05, No Iterations 2
time step continuity errors : sum local = 1.82629e-05, global = 4.05334e-08, cumulative = -9.86979e-07
DICPCG:  Solving for p_rgh, Initial residual = 7.58156e-05, Final residual = 3.49203e-06, No Iterations 28
time step continuity errors : sum local = 1.1353e-06, global = -9.24753e-08, cumulative = -1.07945e-06
DICPCG:  Solving for p_rgh, Initial residual = 3.08632e-05, Final residual = 7.7026e-08, No Iterations 95
time step continuity errors : sum local = 2.52864e-08, global = 5.64216e-10, cumulative = -1.07889e-06
smoothSolver:  Solving for epsilon, Initial residual = 0.00392875, Final residual = 2.14954e-07, No Iterations 5
smoothSolver:  Solving for k, Initial residual = 0.109405, Final residual = 6.51091e-07, No Iterations 8
ExecutionTime = 0.66 s  ClockTime = 2 s

Courant Number mean: 0.0106629 max: 0.1059
Interface Courant Number mean: 0.000199103 max: 0.105899
deltaT = 0.00226255
Time = 0.0115367

smoothSolver:  Solving for alpha.water, Initial residual = 0.000299484, Final residual = 1.98867e-11, No Iterations 2
Phase-1 volume fraction = 0.124752  Min(alpha.water) = 0  Max(alpha.water) = 1
MULES: Correcting alpha.water
MULES: Correcting alpha.water
Phase-1 volume fraction = 0.124752  Min(alpha.water) = -1.10074e-13  Max(alpha.water) = 1
DICPCG:  Solving for p_rgh, Initial residual = 0.00288775, Final residual = 5.86118e-05, No Iterations 2
time step continuity errors : sum local = 2.39086e-05, global = 4.87395e-08, cumulative = -1.03015e-06
DICPCG:  Solving for p_rgh, Initial residual = 7.96342e-05, Final residual = 3.27279e-06, No Iterations 29
time step continuity errors : sum local = 1.3339e-06, global = -1.58298e-07, cumulative = -1.18845e-06
DICPCG:  Solving for p_rgh, Initial residual = 3.38994e-05, Final residual = 9.70303e-08, No Iterations 95
time step continuity errors : sum local = 3.99653e-08, global = 2.55402e-11, cumulative = -1.18842e-06
smoothSolver:  Solving for epsilon, Initial residual = 0.00417111, Final residual = 5.17016e-07, No Iterations 5
smoothSolver:  Solving for k, Initial residual = 0.101727, Final residual = 5.45651e-07, No Iterations 9
ExecutionTime = 0.74 s  ClockTime = 2 s

Courant Number mean: 0.0151153 max: 0.149364
Interface Courant Number mean: 0.000303935 max: 0.144288
deltaT = 0.00256422
Time = 0.0141009

smoothSolver:  Solving for alpha.water, Initial residual = 0.000408682, Final residual = 1.19947e-10, No Iterations 2
Phase-1 volume fraction = 0.124752  Min(alpha.water) = 0  Max(alpha.water) = 1
MULES: Correcting alpha.water
MULES: Correcting alpha.water
Phase-1 volume fraction = 0.124752  Min(alpha.water) = -3.98078e-11  Max(alpha.water) = 1
DICPCG:  Solving for p_rgh, Initial residual = 0.00333908, Final residual = 6.37206e-05, No Iterations 2
time step continuity errors : sum local = 3.11664e-05, global = 6.20314e-08, cumulative = -1.12639e-06
DICPCG:  Solving for p_rgh, Initial residual = 8.78292e-05, Final residual = 4.15659e-06, No Iterations 28
time step continuity errors : sum local = 2.03068e-06, global = -1.94981e-07, cumulative = -1.32137e-06
DICPCG:  Solving for p_rgh, Initial residual = 3.71308e-05, Final residual = 7.82878e-08, No Iterations 96
time step continuity errors : sum local = 3.86793e-08, global = -2.70089e-10, cumulative = -1.32164e-06
smoothSolver:  Solving for epsilon, Initial residual = 0.00427377, Final residual = 2.68531e-07, No Iterations 6
smoothSolver:  Solving for k, Initial residual = 0.093672, Final residual = 4.34635e-07, No Iterations 10
ExecutionTime = 0.85 s  ClockTime = 3 s

Courant Number mean: 0.0204142 max: 0.200311
Interface Courant Number mean: 0.000427693 max: 0.18659
deltaT = 0.00299159
Time = 0.0170925

smoothSolver:  Solving for alpha.water, Initial residual = 0.000564048, Final residual = 6.3377e-10, No Iterations 2
Phase-1 volume fraction = 0.124752  Min(alpha.water) = 0  Max(alpha.water) = 1
MULES: Correcting alpha.water
MULES: Correcting alpha.water
Phase-1 volume fraction = 0.124752  Min(alpha.water) = -3.56849e-10  Max(alpha.water) = 1
DICPCG:  Solving for p_rgh, Initial residual = 0.00396908, Final residual = 7.49737e-05, No Iterations 2
time step continuity errors : sum local = 4.56378e-05, global = 6.67168e-08, cumulative = -1.25493e-06
DICPCG:  Solving for p_rgh, Initial residual = 0.000103386, Final residual = 4.66714e-06, No Iterations 28
time step continuity errors : sum local = 2.8361e-06, global = -3.09112e-07, cumulative = -1.56404e-06
DICPCG:  Solving for p_rgh, Initial residual = 4.21504e-05, Final residual = 9.26678e-08, No Iterations 96
time step continuity errors : sum local = 5.7043e-08, global = -1.33993e-09, cumulative = -1.56538e-06
smoothSolver:  Solving for epsilon, Initial residual = 0.005062, Final residual = 6.97727e-07, No Iterations 6
smoothSolver:  Solving for k, Initial residual = 0.0905096, Final residual = 5.14672e-07, No Iterations 11
ExecutionTime = 0.94 s  ClockTime = 3 s

Courant Number mean: 0.0280111 max: 0.261597
Interface Courant Number mean: 0.000632516 max: 0.261597
deltaT = 0.00329075
Time = 0.0203833

smoothSolver:  Solving for alpha.water, Initial residual = 0.000725344, Final residual = 1.95521e-09, No Iterations 2
Phase-1 volume fraction = 0.124752  Min(alpha.water) = 0  Max(alpha.water) = 1
MULES: Correcting alpha.water
MULES: Correcting alpha.water
Phase-1 volume fraction = 0.124752  Min(alpha.water) = -8.40303e-10  Max(alpha.water) = 1
DICPCG:  Solving for p_rgh, Initial residual = 0.00466516, Final residual = 8.6854e-05, No Iterations 2
time step continuity errors : sum local = 6.05542e-05, global = 8.49192e-08, cumulative = -1.48046e-06
DICPCG:  Solving for p_rgh, Initial residual = 0.000117982, Final residual = 4.89111e-06, No Iterations 28
time step continuity errors : sum local = 3.40174e-06, global = -3.50801e-07, cumulative = -1.83126e-06
DICPCG:  Solving for p_rgh, Initial residual = 4.65989e-05, Final residual = 8.16842e-08, No Iterations 97
time step continuity errors : sum local = 5.76037e-08, global = -2.50051e-09, cumulative = -1.83376e-06
smoothSolver:  Solving for epsilon, Initial residual = 0.00589233, Final residual = 4.06181e-07, No Iterations 7
smoothSolver:  Solving for k, Initial residual = 0.083654, Final residual = 4.25501e-07, No Iterations 12
ExecutionTime = 1.04 s  ClockTime = 3 s

Courant Number mean: 0.0356797 max: 0.313748
Interface Courant Number mean: 0.000833769 max: 0.313748
deltaT = 0.00370209
Time = 0.0240853

smoothSolver:  Solving for alpha.water, Initial residual = 0.000940198, Final residual = 5.92575e-09, No Iterations 2
Phase-1 volume fraction = 0.124752  Min(alpha.water) = 0  Max(alpha.water) = 1
MULES: Correcting alpha.water
MULES: Correcting alpha.water
Phase-1 volume fraction = 0.124752  Min(alpha.water) = -1.49962e-09  Max(alpha.water) = 1
DICPCG:  Solving for p_rgh, Initial residual = 0.00576396, Final residual = 0.000105569, No Iterations 2
time step continuity errors : sum local = 8.67304e-05, global = 8.08135e-08, cumulative = -1.75295e-06
DICPCG:  Solving for p_rgh, Initial residual = 0.000142471, Final residual = 5.85875e-06, No Iterations 28
time step continuity errors : sum local = 4.7958e-06, global = -5.32334e-07, cumulative = -2.28528e-06
DICPCG:  Solving for p_rgh, Initial residual = 5.47077e-05, Final residual = 9.32697e-08, No Iterations 97
time step continuity errors : sum local = 7.75814e-08, global = -4.52535e-09, cumulative = -2.28981e-06
smoothSolver:  Solving for epsilon, Initial residual = 0.00683145, Final residual = 9.01258e-07, No Iterations 7
smoothSolver:  Solving for k, Initial residual = 0.0805211, Final residual = 4.83841e-07, No Iterations 13
ExecutionTime = 1.14 s  ClockTime = 4 s

Courant Number mean: 0.0459804 max: 0.380912
Interface Courant Number mean: 0.00111583 max: 0.380912
deltaT = 0.00431911
Time = 0.0284045

smoothSolver:  Solving for alpha.water, Initial residual = 0.0012505, Final residual = 8.48117e-12, No Iterations 3
Phase-1 volume fraction = 0.124752  Min(alpha.water) = 0  Max(alpha.water) = 1
MULES: Correcting alpha.water
MULES: Correcting alpha.water
Phase-1 volume fraction = 0.124752  Min(alpha.water) = -1.54783e-09  Max(alpha.water) = 1
DICPCG:  Solving for p_rgh, Initial residual = 0.00770215, Final residual = 0.000137197, No Iterations 2
time step continuity errors : sum local = 0.000139134, global = 1.67942e-07, cumulative = -2.12186e-06
DICPCG:  Solving for p_rgh, Initial residual = 0.000185267, Final residual = 7.24363e-06, No Iterations 28
time step continuity errors : sum local = 7.30381e-06, global = -7.8033e-07, cumulative = -2.90219e-06
DICPCG:  Solving for p_rgh, Initial residual = 6.81674e-05, Final residual = 9.76438e-08, No Iterations 98
time step continuity errors : sum local = 1.00364e-07, global = -7.72732e-09, cumulative = -2.90992e-06
smoothSolver:  Solving for epsilon, Initial residual = 0.00802358, Final residual = 9.7456e-07, No Iterations 8
smoothSolver:  Solving for k, Initial residual = 0.0812616, Final residual = 8.46526e-07, No Iterations 14
ExecutionTime = 1.22 s  ClockTime = 4 s

Courant Number mean: 0.0610584 max: 0.478508
Interface Courant Number mean: 0.00150515 max: 0.478508
deltaT = 0.00431911
Time = 0.0327236

smoothSolver:  Solving for alpha.water, Initial residual = 0.00141575, Final residual = 4.11923e-11, No Iterations 3
Phase-1 volume fraction = 0.124752  Min(alpha.water) = 0  Max(alpha.water) = 1
MULES: Correcting alpha.water
MULES: Correcting alpha.water
Phase-1 volume fraction = 0.124752  Min(alpha.water) = -2.99876e-14  Max(alpha.water) = 1
DICPCG:  Solving for p_rgh, Initial residual = 0.00933604, Final residual = 0.000159074, No Iterations 2
time step continuity errors : sum local = 0.000162219, global = 1.50087e-07, cumulative = -2.75983e-06
DICPCG:  Solving for p_rgh, Initial residual = 0.000214479, Final residual = 9.1583e-06, No Iterations 27
time step continuity errors : sum local = 9.26804e-06, global = -7.46685e-07, cumulative = -3.50652e-06
DICPCG:  Solving for p_rgh, Initial residual = 7.69031e-05, Final residual = 9.13095e-08, No Iterations 70
time step continuity errors : sum local = 9.42201e-08, global = -1.7824e-08, cumulative = -3.52434e-06
smoothSolver:  Solving for epsilon, Initial residual = 0.00822747, Final residual = 4.45145e-07, No Iterations 9
smoothSolver:  Solving for k, Initial residual = 0.0715677, Final residual = 8.35163e-07, No Iterations 14
ExecutionTime = 1.3 s  ClockTime = 4 s

Courant Number mean: 0.068485 max: 0.511826
Interface Courant Number mean: 0.00181278 max: 0.511826
deltaT = 0.00431911
Time = 0.0370427

smoothSolver:  Solving for alpha.water, Initial residual = 0.00158105, Final residual = 1.01458e-10, No Iterations 3
Phase-1 volume fraction = 0.124752  Min(alpha.water) = 0  Max(alpha.water) = 1
MULES: Correcting alpha.water
MULES: Correcting alpha.water
Phase-1 volume fraction = 0.124752  Min(alpha.water) = -5.89548e-14  Max(alpha.water) = 1
DICPCG:  Solving for p_rgh, Initial residual = 0.0110607, Final residual = 0.000189907, No Iterations 2
time step continuity errors : sum local = 0.000194134, global = 1.25883e-07, cumulative = -3.39846e-06
DICPCG:  Solving for p_rgh, Initial residual = 0.000253278, Final residual = 9.8801e-06, No Iterations 27
time step continuity errors : sum local = 1.00025e-05, global = -9.12356e-07, cumulative = -4.31082e-06
DICPCG:  Solving for p_rgh, Initial residual = 8.60128e-05, Final residual = 9.86248e-08, No Iterations 98
time step continuity errors : sum local = 1.01978e-07, global = -8.56624e-09, cumulative = -4.31938e-06
smoothSolver:  Solving for epsilon, Initial residual = 0.0082766, Final residual = 5.15869e-07, No Iterations 9
smoothSolver:  Solving for k, Initial residual = 0.0646301, Final residual = 8.57278e-07, No Iterations 14
ExecutionTime = 1.39 s  ClockTime = 4 s

Courant Number mean: 0.0759139 max: 0.545876
Interface Courant Number mean: 0.00240672 max: 0.545876
deltaT = 0.00431911
Time = 0.0413618

smoothSolver:  Solving for alpha.water, Initial residual = 0.00174461, Final residual = 1.88622e-10, No Iterations 3
Phase-1 volume fraction = 0.124752  Min(alpha.water) = 0  Max(alpha.water) = 1
MULES: Correcting alpha.water
MULES: Correcting alpha.water
Phase-1 volume fraction = 0.124752  Min(alpha.water) = -1.54394e-14  Max(alpha.water) = 1
DICPCG:  Solving for p_rgh, Initial residual = 0.0129259, Final residual = 0.000229439, No Iterations 2
time step continuity errors : sum local = 0.000234621, global = 2.51077e-07, cumulative = -4.06831e-06
DICPCG:  Solving for p_rgh, Initial residual = 0.000306594, Final residual = 1.15779e-05, No Iterations 27
time step continuity errors : sum local = 1.17e-05, global = -6.92575e-07, cumulative = -4.76088e-06
DICPCG:  Solving for p_rgh, Initial residual = 9.98662e-05, Final residual = 9.58717e-08, No Iterations 74
time step continuity errors : sum local = 9.91149e-08, global = 3.54932e-08, cumulative = -4.72539e-06
smoothSolver:  Solving for epsilon, Initial residual = 0.00842481, Final residual = 6.12243e-07, No Iterations 9
smoothSolver:  Solving for k, Initial residual = 0.0595384, Final residual = 9.09957e-07, No Iterations 14
ExecutionTime = 1.49 s  ClockTime = 5 s

Courant Number mean: 0.0833305 max: 0.569808
Interface Courant Number mean: 0.00279873 max: 0.569808
deltaT = 0.00431911
Time = 0.0456809

smoothSolver:  Solving for alpha.water, Initial residual = 0.00190823, Final residual = 3.12266e-10, No Iterations 3
Phase-1 volume fraction = 0.124752  Min(alpha.water) = 0  Max(alpha.water) = 1
MULES: Correcting alpha.water
MULES: Correcting alpha.water
Phase-1 volume fraction = 0.124752  Min(alpha.water) = -5.07956e-15  Max(alpha.water) = 1
DICPCG:  Solving for p_rgh, Initial residual = 0.0148353, Final residual = 0.000284394, No Iterations 2
time step continuity errors : sum local = 0.000290131, global = 1.96232e-07, cumulative = -4.52916e-06
DICPCG:  Solving for p_rgh, Initial residual = 0.000375123, Final residual = 1.37238e-05, No Iterations 27
time step continuity errors : sum local = 1.38051e-05, global = -7.55913e-07, cumulative = -5.28507e-06
DICPCG:  Solving for p_rgh, Initial residual = 0.000117411, Final residual = 9.54885e-08, No Iterations 102
time step continuity errors : sum local = 9.83959e-08, global = -7.65297e-09, cumulative = -5.29272e-06
smoothSolver:  Solving for epsilon, Initial residual = 0.00865015, Final residual = 7.38841e-07, No Iterations 9
smoothSolver:  Solving for k, Initial residual = 0.0556298, Final residual = 9.90034e-07, No Iterations 14
ExecutionTime = 1.57 s  ClockTime = 5 s

Courant Number mean: 0.0907224 max: 0.595036
Interface Courant Number mean: 0.0031424 max: 0.595036
deltaT = 0.00431911
Time = 0.05

smoothSolver:  Solving for alpha.water, Initial residual = 0.00207018, Final residual = 4.64647e-10, No Iterations 3
Phase-1 volume fraction = 0.124752  Min(alpha.water) = 0  Max(alpha.water) = 1
MULES: Correcting alpha.water
MULES: Correcting alpha.water
Phase-1 volume fraction = 0.124752  Min(alpha.water) = -2.86722e-13  Max(alpha.water) = 1
DICPCG:  Solving for p_rgh, Initial residual = 0.0169623, Final residual = 0.000356779, No Iterations 2
time step continuity errors : sum local = 0.000362082, global = 1.48901e-07, cumulative = -5.14382e-06
DICPCG:  Solving for p_rgh, Initial residual = 0.000466962, Final residual = 1.69902e-05, No Iterations 27
time step continuity errors : sum local = 1.69624e-05, global = -5.3351e-07, cumulative = -5.67733e-06
DICPCG:  Solving for p_rgh, Initial residual = 0.000146134, Final residual = 9.06467e-08, No Iterations 74
time step continuity errors : sum local = 9.28344e-08, global = 1.75024e-08, cumulative = -5.65983e-06
smoothSolver:  Solving for epsilon, Initial residual = 0.00886809, Final residual = 9.01199e-07, No Iterations 9
smoothSolver:  Solving for k, Initial residual = 0.0526205, Final residual = 5.55745e-07, No Iterations 15
ExecutionTime = 1.66 s  ClockTime = 5 s

Courant Number mean: 0.098102 max: 0.614837
Interface Courant Number mean: 0.00351301 max: 0.614837
deltaT = 0.005
Time = 0.055

smoothSolver:  Solving for alpha.water, Initial residual = 0.00258006, Final residual = 1.64853e-09, No Iterations 3
Phase-1 volume fraction = 0.124752  Min(alpha.water) = 0  Max(alpha.water) = 1
MULES: Correcting alpha.water
MULES: Correcting alpha.water
Phase-1 volume fraction = 0.124752  Min(alpha.water) = -4.58169e-16  Max(alpha.water) = 1
DICPCG:  Solving for p_rgh, Initial residual = 0.0207954, Final residual = 0.000518831, No Iterations 2
time step continuity errors : sum local = 0.000638159, global = 1.60805e-07, cumulative = -5.49902e-06
DICPCG:  Solving for p_rgh, Initial residual = 0.000702898, Final residual = 2.71422e-05, No Iterations 27
time step continuity errors : sum local = 3.27816e-05, global = -2.69027e-07, cumulative = -5.76805e-06
DICPCG:  Solving for p_rgh, Initial residual = 0.000231917, Final residual = 8.80827e-08, No Iterations 109
time step continuity errors : sum local = 1.09708e-07, global = -6.65215e-09, cumulative = -5.7747e-06
smoothSolver:  Solving for epsilon, Initial residual = 0.0103113, Final residual = 6.39334e-07, No Iterations 11
smoothSolver:  Solving for k, Initial residual = 0.0574711, Final residual = 6.68193e-07, No Iterations 17
ExecutionTime = 1.74 s  ClockTime = 6 s

Courant Number mean: 0.122675 max: 0.776766
Interface Courant Number mean: 0.00459743 max: 0.733453
deltaT = 0.005625
Time = 0.060625

smoothSolver:  Solving for alpha.water, Initial residual = 0.00311687, Final residual = 5.10621e-09, No Iterations 3
Phase-1 volume fraction = 0.124752  Min(alpha.water) = 0  Max(alpha.water) = 1
MULES: Correcting alpha.water
MULES: Correcting alpha.water
Phase-1 volume fraction = 0.124752  Min(alpha.water) = -8.66605e-08  Max(alpha.water) = 1
DICPCG:  Solving for p_rgh, Initial residual = 0.0367966, Final residual = 0.000705496, No Iterations 2
time step continuity errors : sum local = 0.00105193, global = -2.53279e-07, cumulative = -6.02798e-06
DICPCG:  Solving for p_rgh, Initial residual = 0.0009254, Final residual = 3.86202e-05, No Iterations 26
time step continuity errors : sum local = 5.56861e-05, global = 1.34783e-06, cumulative = -4.68015e-06
DICPCG:  Solving for p_rgh, Initial residual = 0.000303973, Final residual = 9.06466e-08, No Iterations 114
time step continuity errors : sum local = 1.35001e-07, global = 2.1049e-09, cumulative = -4.67804e-06
smoothSolver:  Solving for epsilon, Initial residual = 0.0117378, Final residual = 9.41672e-07, No Iterations 12
smoothSolver:  Solving for k, Initial residual = 0.060721, Final residual = 7.34884e-07, No Iterations 19
ExecutionTime = 1.83 s  ClockTime = 6 s

Courant Number mean: 0.14864 max: 0.955084
Interface Courant Number mean: 0.0060579 max: 0.856506
deltaT = 0.005625
Time = 0.06625

smoothSolver:  Solving for alpha.water, Initial residual = 0.00334045, Final residual = 7.79578e-09, No Iterations 3
Phase-1 volume fraction = 0.124752  Min(alpha.water) = 0  Max(alpha.water) = 1
MULES: Correcting alpha.water
MULES: Correcting alpha.water
Phase-1 volume fraction = 0.124752  Min(alpha.water) = -1.79733e-09  Max(alpha.water) = 1.00002
DICPCG:  Solving for p_rgh, Initial residual = 0.0253795, Final residual = 0.000499415, No Iterations 2
time step continuity errors : sum local = 0.000735151, global = -1.70513e-06, cumulative = -6.38318e-06
DICPCG:  Solving for p_rgh, Initial residual = 0.00067597, Final residual = 2.75078e-05, No Iterations 26
time step continuity errors : sum local = 3.95558e-05, global = -8.38264e-08, cumulative = -6.467e-06
DICPCG:  Solving for p_rgh, Initial residual = 0.000226034, Final residual = 9.67537e-08, No Iterations 112
time step continuity errors : sum local = 1.4363e-07, global = -5.68554e-10, cumulative = -6.46757e-06
smoothSolver:  Solving for epsilon, Initial residual = 0.0120828, Final residual = 6.21561e-07, No Iterations 13
smoothSolver:  Solving for k, Initial residual = 0.0577564, Final residual = 8.48064e-07, No Iterations 19
ExecutionTime = 1.93 s  ClockTime = 6 s

Courant Number mean: 0.15919 max: 1.03559
Interface Courant Number mean: 0.00675794 max: 0.888335
deltaT = 0.00482143
Time = 0.0710714

smoothSolver:  Solving for alpha.water, Initial residual = 0.00305699, Final residual = 4.73556e-09, No Iterations 3
Phase-1 volume fraction = 0.124752  Min(alpha.water) = -1.45254e-09  Max(alpha.water) = 1
MULES: Correcting alpha.water
MULES: Correcting alpha.water
Phase-1 volume fraction = 0.124752  Min(alpha.water) = -1.45254e-09  Max(alpha.water) = 1.00004
DICPCG:  Solving for p_rgh, Initial residual = 0.0204866, Final residual = 0.000473965, No Iterations 2
time step continuity errors : sum local = 0.0005656, global = -8.23241e-07, cumulative = -7.29081e-06
DICPCG:  Solving for p_rgh, Initial residual = 0.000626864, Final residual = 2.90328e-05, No Iterations 26
time step continuity errors : sum local = 3.39384e-05, global = 1.4554e-06, cumulative = -5.83541e-06
DICPCG:  Solving for p_rgh, Initial residual = 0.000206608, Final residual = 9.45496e-08, No Iterations 111
time step continuity errors : sum local = 1.13674e-07, global = -1.59823e-09, cumulative = -5.83701e-06
smoothSolver:  Solving for epsilon, Initial residual = 0.0109579, Final residual = 9.88426e-07, No Iterations 11
smoothSolver:  Solving for k, Initial residual = 0.0479091, Final residual = 7.21551e-07, No Iterations 17
ExecutionTime = 2.05 s  ClockTime = 7 s

Courant Number mean: 0.144824 max: 0.946985
Interface Courant Number mean: 0.00614947 max: 0.779488
deltaT = 0.00482143
Time = 0.0758929

smoothSolver:  Solving for alpha.water, Initial residual = 0.00323533, Final residual = 6.68763e-09, No Iterations 3
Phase-1 volume fraction = 0.124752  Min(alpha.water) = -1.1577e-09  Max(alpha.water) = 1
MULES: Correcting alpha.water
MULES: Correcting alpha.water
Phase-1 volume fraction = 0.124752  Min(alpha.water) = -1.1577e-09  Max(alpha.water) = 1.00019
DICPCG:  Solving for p_rgh, Initial residual = 0.0217142, Final residual = 0.000648555, No Iterations 2
time step continuity errors : sum local = 0.000777059, global = -1.62696e-06, cumulative = -7.46397e-06
DICPCG:  Solving for p_rgh, Initial residual = 0.000842357, Final residual = 4.08806e-05, No Iterations 26
time step continuity errors : sum local = 4.79761e-05, global = 7.38337e-07, cumulative = -6.72563e-06
DICPCG:  Solving for p_rgh, Initial residual = 0.000275004, Final residual = 9.56173e-08, No Iterations 114
time step continuity errors : sum local = 1.15828e-07, global = 1.02721e-09, cumulative = -6.72461e-06
smoothSolver:  Solving for epsilon, Initial residual = 0.0113756, Final residual = 5.87447e-07, No Iterations 12
smoothSolver:  Solving for k, Initial residual = 0.0464667, Final residual = 8.16718e-07, No Iterations 17
ExecutionTime = 2.14 s  ClockTime = 7 s

Courant Number mean: 0.153122 max: 1.00733
Interface Courant Number mean: 0.00684689 max: 0.789323
deltaT = 0.00401786
Time = 0.0799107

smoothSolver:  Solving for alpha.water, Initial residual = 0.00284052, Final residual = 3.24952e-09, No Iterations 3
Phase-1 volume fraction = 0.124752  Min(alpha.water) = -9.43787e-10  Max(alpha.water) = 1
MULES: Correcting alpha.water
MULES: Correcting alpha.water
Phase-1 volume fraction = 0.124752  Min(alpha.water) = -9.43787e-10  Max(alpha.water) = 1.00001
DICPCG:  Solving for p_rgh, Initial residual = 0.0279895, Final residual = 0.000568594, No Iterations 2
time step continuity errors : sum local = 0.000542857, global = -1.18185e-06, cumulative = -7.90646e-06
DICPCG:  Solving for p_rgh, Initial residual = 0.000743887, Final residual = 3.31604e-05, No Iterations 26
time step continuity errors : sum local = 3.08094e-05, global = 1.50136e-06, cumulative = -6.4051e-06
DICPCG:  Solving for p_rgh, Initial residual = 0.000238657, Final residual = 8.28348e-08, No Iterations 113
time step continuity errors : sum local = 7.89998e-08, global = -5.34229e-10, cumulative = -6.40563e-06
smoothSolver:  Solving for epsilon, Initial residual = 0.0099962, Final residual = 8.43954e-07, No Iterations 10
smoothSolver:  Solving for k, Initial residual = 0.0378856, Final residual = 6.16244e-07, No Iterations 15
ExecutionTime = 2.2 s  ClockTime = 7 s

Courant Number mean: 0.13384 max: 0.881778
Interface Courant Number mean: 0.00612266 max: 0.67311
deltaT = 0.00401786
Time = 0.0839286

smoothSolver:  Solving for alpha.water, Initial residual = 0.00297013, Final residual = 4.32435e-09, No Iterations 3
Phase-1 volume fraction = 0.124752  Min(alpha.water) = -7.62212e-10  Max(alpha.water) = 1
MULES: Correcting alpha.water
MULES: Correcting alpha.water
Phase-1 volume fraction = 0.124752  Min(alpha.water) = -3.09918e-07  Max(alpha.water) = 1.00001
DICPCG:  Solving for p_rgh, Initial residual = 0.0284636, Final residual = 0.000589941, No Iterations 2
time step continuity errors : sum local = 0.000557565, global = -1.52665e-06, cumulative = -7.93228e-06
DICPCG:  Solving for p_rgh, Initial residual = 0.000760638, Final residual = 3.02849e-05, No Iterations 26
time step continuity errors : sum local = 2.79264e-05, global = 2.32742e-07, cumulative = -7.69954e-06
DICPCG:  Solving for p_rgh, Initial residual = 0.00023545, Final residual = 9.73792e-08, No Iterations 112
time step continuity errors : sum local = 9.26089e-08, global = -2.68581e-09, cumulative = -7.70223e-06
smoothSolver:  Solving for epsilon, Initial residual = 0.0103173, Final residual = 9.87189e-07, No Iterations 10
smoothSolver:  Solving for k, Initial residual = 0.0366445, Final residual = 6.74664e-07, No Iterations 15
ExecutionTime = 2.29 s  ClockTime = 8 s

Courant Number mean: 0.139976 max: 0.9251
Interface Courant Number mean: 0.00606301 max: 0.684659
deltaT = 0.00401786
Time = 0.0879464

smoothSolver:  Solving for alpha.water, Initial residual = 0.0030997, Final residual = 5.79521e-09, No Iterations 3
Phase-1 volume fraction = 0.124752  Min(alpha.water) = -2.27227e-08  Max(alpha.water) = 1
MULES: Correcting alpha.water
MULES: Correcting alpha.water
Phase-1 volume fraction = 0.124752  Min(alpha.water) = -2.27227e-08  Max(alpha.water) = 1.00001
DICPCG:  Solving for p_rgh, Initial residual = 0.0167576, Final residual = 0.000524765, No Iterations 2
time step continuity errors : sum local = 0.000494104, global = -8.20647e-07, cumulative = -8.52287e-06
DICPCG:  Solving for p_rgh, Initial residual = 0.000679096, Final residual = 2.8873e-05, No Iterations 27
time step continuity errors : sum local = 2.67358e-05, global = 1.86526e-06, cumulative = -6.65762e-06
DICPCG:  Solving for p_rgh, Initial residual = 0.000208877, Final residual = 9.47643e-08, No Iterations 113
time step continuity errors : sum local = 9.05412e-08, global = -2.30695e-09, cumulative = -6.65992e-06
smoothSolver:  Solving for epsilon, Initial residual = 0.0107341, Final residual = 5.18225e-07, No Iterations 11
smoothSolver:  Solving for k, Initial residual = 0.0352454, Final residual = 7.28738e-07, No Iterations 15
ExecutionTime = 2.38 s  ClockTime = 8 s

Courant Number mean: 0.146084 max: 0.969416
Interface Courant Number mean: 0.00640203 max: 0.688457
deltaT = 0.00401786
Time = 0.0919643

smoothSolver:  Solving for alpha.water, Initial residual = 0.00322877, Final residual = 7.78581e-09, No Iterations 3
Phase-1 volume fraction = 0.124752  Min(alpha.water) = -1.81212e-08  Max(alpha.water) = 1
MULES: Correcting alpha.water
MULES: Correcting alpha.water
Phase-1 volume fraction = 0.124752  Min(alpha.water) = -1.81212e-08  Max(alpha.water) = 1.00002
DICPCG:  Solving for p_rgh, Initial residual = 0.0250463, Final residual = 0.000598562, No Iterations 2
time step continuity errors : sum local = 0.000574129, global = -1.38568e-06, cumulative = -8.0456e-06
DICPCG:  Solving for p_rgh, Initial residual = 0.000777846, Final residual = 3.85387e-05, No Iterations 25
time step continuity errors : sum local = 3.60509e-05, global = 8.47147e-07, cumulative = -7.19846e-06
DICPCG:  Solving for p_rgh, Initial residual = 0.000228272, Final residual = 9.55175e-08, No Iterations 113
time step continuity errors : sum local = 9.21917e-08, global = -3.35337e-09, cumulative = -7.20181e-06
smoothSolver:  Solving for epsilon, Initial residual = 0.0111428, Final residual = 6.03057e-07, No Iterations 11
smoothSolver:  Solving for k, Initial residual = 0.0338062, Final residual = 7.79851e-07, No Iterations 15
ExecutionTime = 2.48 s  ClockTime = 8 s

Courant Number mean: 0.152118 max: 1.01509
Interface Courant Number mean: 0.00658751 max: 0.706874
deltaT = 0.00267857
Time = 0.0946429

smoothSolver:  Solving for alpha.water, Initial residual = 0.0022386, Final residual = 9.93676e-10, No Iterations 3
Phase-1 volume fraction = 0.124752  Min(alpha.water) = -1.54106e-08  Max(alpha.water) = 1
MULES: Correcting alpha.water
MULES: Correcting alpha.water
Phase-1 volume fraction = 0.124752  Min(alpha.water) = -1.54106e-08  Max(alpha.water) = 1
DICPCG:  Solving for p_rgh, Initial residual = 0.018281, Final residual = 0.000419119, No Iterations 2
time step continuity errors : sum local = 0.000226934, global = -1.0084e-06, cumulative = -8.21021e-06
DICPCG:  Solving for p_rgh, Initial residual = 0.000538595, Final residual = 2.46439e-05, No Iterations 26
time step continuity errors : sum local = 1.31055e-05, global = 7.51104e-07, cumulative = -7.45911e-06
DICPCG:  Solving for p_rgh, Initial residual = 0.000160698, Final residual = 9.60389e-08, No Iterations 109
time step continuity errors : sum local = 5.20359e-08, global = -2.51577e-09, cumulative = -7.46162e-06
smoothSolver:  Solving for epsilon, Initial residual = 0.00792167, Final residual = 5.46248e-07, No Iterations 8
smoothSolver:  Solving for k, Initial residual = 0.0218864, Final residual = 5.27306e-07, No Iterations 11
ExecutionTime = 2.57 s  ClockTime = 8 s

Courant Number mean: 0.104594 max: 0.697116
Interface Courant Number mean: 0.00457366 max: 0.474254
deltaT = 0.00267857
Time = 0.0973214

smoothSolver:  Solving for alpha.water, Initial residual = 0.00230523, Final residual = 1.24111e-09, No Iterations 3
Phase-1 volume fraction = 0.124752  Min(alpha.water) = -1.30495e-08  Max(alpha.water) = 1
MULES: Correcting alpha.water
MULES: Correcting alpha.water
Phase-1 volume fraction = 0.124752  Min(alpha.water) = -1.30495e-08  Max(alpha.water) = 1
DICPCG:  Solving for p_rgh, Initial residual = 0.0198484, Final residual = 0.000490664, No Iterations 2
time step continuity errors : sum local = 0.000264324, global = -6.03221e-07, cumulative = -8.06484e-06
DICPCG:  Solving for p_rgh, Initial residual = 0.000636372, Final residual = 2.76565e-05, No Iterations 26
time step continuity errors : sum local = 1.46297e-05, global = 4.78858e-07, cumulative = -7.58599e-06
DICPCG:  Solving for p_rgh, Initial residual = 0.000189052, Final residual = 8.56174e-08, No Iterations 111
time step continuity errors : sum local = 4.65493e-08, global = -1.97011e-09, cumulative = -7.58796e-06
smoothSolver:  Solving for epsilon, Initial residual = 0.00813221, Final residual = 6.01682e-07, No Iterations 8
smoothSolver:  Solving for k, Initial residual = 0.0213147, Final residual = 5.50819e-07, No Iterations 11
ExecutionTime = 2.61 s  ClockTime = 9 s

Courant Number mean: 0.107734 max: 0.718137
Interface Courant Number mean: 0.00457192 max: 0.485492
deltaT = 0.00267857
Time = 0.1

smoothSolver:  Solving for alpha.water, Initial residual = 0.0023705, Final residual = 1.5753e-09, No Iterations 3
Phase-1 volume fraction = 0.124752  Min(alpha.water) = -1.10343e-08  Max(alpha.water) = 1
MULES: Correcting alpha.water
MULES: Correcting alpha.water
Phase-1 volume fraction = 0.124752  Min(alpha.water) = -4.63464e-08  Max(alpha.water) = 1
DICPCG:  Solving for p_rgh, Initial residual = 0.0243423, Final residual = 0.000527339, No Iterations 2
time step continuity errors : sum local = 0.000289239, global = -4.73647e-07, cumulative = -8.0616e-06
DICPCG:  Solving for p_rgh, Initial residual = 0.000674885, Final residual = 2.89467e-05, No Iterations 27
time step continuity errors : sum local = 1.55611e-05, global = 1.36185e-06, cumulative = -6.69976e-06
DICPCG:  Solving for p_rgh, Initial residual = 0.000191157, Final residual = 8.6501e-08, No Iterations 111
time step continuity errors : sum local = 4.77797e-08, global = -2.23445e-09, cumulative = -6.70199e-06
smoothSolver:  Solving for epsilon, Initial residual = 0.00835364, Final residual = 6.60004e-07, No Iterations 8
smoothSolver:  Solving for k, Initial residual = 0.0207529, Final residual = 5.73247e-07, No Iterations 11
ExecutionTime = 2.73 s  ClockTime = 9 s

Courant Number mean: 0.110838 max: 0.73971
Interface Courant Number mean: 0.0045263 max: 0.484006
deltaT = 0.00294118
Time = 0.102941

smoothSolver:  Solving for alpha.water, Initial residual = 0.00267651, Final residual = 3.48599e-09, No Iterations 3
Phase-1 volume fraction = 0.124752  Min(alpha.water) = -9.19767e-09  Max(alpha.water) = 1
MULES: Correcting alpha.water
MULES: Correcting alpha.water
Phase-1 volume fraction = 0.124752  Min(alpha.water) = -9.19767e-09  Max(alpha.water) = 1.00001
DICPCG:  Solving for p_rgh, Initial residual = 0.018424, Final residual = 0.000413743, No Iterations 2
time step continuity errors : sum local = 0.000257709, global = -8.60651e-07, cumulative = -7.56264e-06
DICPCG:  Solving for p_rgh, Initial residual = 0.000552722, Final residual = 2.43553e-05, No Iterations 26
time step continuity errors : sum local = 1.48948e-05, global = 7.15386e-07, cumulative = -6.84725e-06
DICPCG:  Solving for p_rgh, Initial residual = 0.000162054, Final residual = 8.2269e-08, No Iterations 111
time step continuity errors : sum local = 5.1869e-08, global = -3.34368e-09, cumulative = -6.8506e-06
smoothSolver:  Solving for epsilon, Initial residual = 0.00940272, Final residual = 5.18375e-07, No Iterations 9
smoothSolver:  Solving for k, Initial residual = 0.0222304, Final residual = 5.61223e-07, No Iterations 12
ExecutionTime = 2.82 s  ClockTime = 9 s

Courant Number mean: 0.12529 max: 0.839651
Interface Courant Number mean: 0.0052107 max: 0.542212
deltaT = 0.00313725
Time = 0.106078

smoothSolver:  Solving for alpha.water, Initial residual = 0.00293698, Final residual = 6.63851e-09, No Iterations 3
Phase-1 volume fraction = 0.124752  Min(alpha.water) = -7.51739e-09  Max(alpha.water) = 1
MULES: Correcting alpha.water
MULES: Correcting alpha.water
Phase-1 volume fraction = 0.124752  Min(alpha.water) = -7.51739e-09  Max(alpha.water) = 1
DICPCG:  Solving for p_rgh, Initial residual = 0.0188393, Final residual = 0.000443628, No Iterations 2
time step continuity errors : sum local = 0.000301525, global = -6.03199e-07, cumulative = -7.4538e-06
DICPCG:  Solving for p_rgh, Initial residual = 0.00061438, Final residual = 2.97589e-05, No Iterations 26
time step continuity errors : sum local = 1.9857e-05, global = 2.04286e-06, cumulative = -5.41093e-06
DICPCG:  Solving for p_rgh, Initial residual = 0.000200577, Final residual = 9.44938e-08, No Iterations 112
time step continuity errors : sum local = 6.50246e-08, global = -3.86201e-09, cumulative = -5.41479e-06
smoothSolver:  Solving for epsilon, Initial residual = 0.0103091, Final residual = 9.0064e-07, No Iterations 9
smoothSolver:  Solving for k, Initial residual = 0.0231143, Final residual = 9.86977e-07, No Iterations 12
ExecutionTime = 2.92 s  ClockTime = 9 s

Courant Number mean: 0.137557 max: 0.927788
Interface Courant Number mean: 0.00569216 max: 0.577216
deltaT = 0.00337858
Time = 0.109457

smoothSolver:  Solving for alpha.water, Initial residual = 0.00325288, Final residual = 1.70209e-10, No Iterations 4
Phase-1 volume fraction = 0.124752  Min(alpha.water) = -6.00967e-09  Max(alpha.water) = 1
MULES: Correcting alpha.water
MULES: Correcting alpha.water
Phase-1 volume fraction = 0.124752  Min(alpha.water) = -6.00967e-09  Max(alpha.water) = 1.00001
DICPCG:  Solving for p_rgh, Initial residual = 0.0231258, Final residual = 0.00063861, No Iterations 2
time step continuity errors : sum local = 0.000485372, global = -1.49068e-06, cumulative = -6.90547e-06
DICPCG:  Solving for p_rgh, Initial residual = 0.000866696, Final residual = 4.05534e-05, No Iterations 28
time step continuity errors : sum local = 3.0109e-05, global = 2.25763e-06, cumulative = -4.64785e-06
DICPCG:  Solving for p_rgh, Initial residual = 0.000280007, Final residual = 9.31496e-08, No Iterations 115
time step continuity errors : sum local = 7.13722e-08, global = -2.52005e-09, cumulative = -4.65037e-06
smoothSolver:  Solving for epsilon, Initial residual = 0.011455, Final residual = 6.93471e-07, No Iterations 10
smoothSolver:  Solving for k, Initial residual = 0.0242128, Final residual = 8.92413e-07, No Iterations 13
ExecutionTime = 2.99 s  ClockTime = 10 s

Courant Number mean: 0.152484 max: 1.0385
Interface Courant Number mean: 0.00670285 max: 0.638033
deltaT = 0.00311869
Time = 0.112576

smoothSolver:  Solving for alpha.water, Initial residual = 0.00309035, Final residual = 1.47907e-10, No Iterations 4
Phase-1 volume fraction = 0.124752  Min(alpha.water) = -4.84528e-09  Max(alpha.water) = 1
MULES: Correcting alpha.water
MULES: Correcting alpha.water
Phase-1 volume fraction = 0.124752  Min(alpha.water) = -1.46361e-07  Max(alpha.water) = 1
DICPCG:  Solving for p_rgh, Initial residual = 0.0291784, Final residual = 0.000600348, No Iterations 2
time step continuity errors : sum local = 0.000411289, global = -1.0696e-06, cumulative = -5.71997e-06
DICPCG:  Solving for p_rgh, Initial residual = 0.00082933, Final residual = 3.70218e-05, No Iterations 26
time step continuity errors : sum local = 2.46786e-05, global = 3.1399e-06, cumulative = -2.58007e-06
DICPCG:  Solving for p_rgh, Initial residual = 0.000264239, Final residual = 8.10658e-08, No Iterations 114
time step continuity errors : sum local = 5.55056e-08, global = -1.35104e-09, cumulative = -2.58142e-06
smoothSolver:  Solving for epsilon, Initial residual = 0.010937, Final residual = 4.13498e-07, No Iterations 10
smoothSolver:  Solving for k, Initial residual = 0.0216617, Final residual = 9.87752e-07, No Iterations 12
ExecutionTime = 3.04 s  ClockTime = 10 s

Courant Number mean: 0.144496 max: 0.992759
Interface Courant Number mean: 0.00638218 max: 0.590374
deltaT = 0.00311869
Time = 0.115694

smoothSolver:  Solving for alpha.water, Initial residual = 0.00317382, Final residual = 2.02977e-10, No Iterations 4
Phase-1 volume fraction = 0.124752  Min(alpha.water) = -3.88494e-09  Max(alpha.water) = 1
MULES: Correcting alpha.water
MULES: Correcting alpha.water
Phase-1 volume fraction = 0.124752  Min(alpha.water) = -9.69059e-09  Max(alpha.water) = 1
DICPCG:  Solving for p_rgh, Initial residual = 0.0208087, Final residual = 0.000547054, No Iterations 2
time step continuity errors : sum local = 0.000370811, global = -2.00328e-06, cumulative = -4.58469e-06
DICPCG:  Solving for p_rgh, Initial residual = 0.000740897, Final residual = 3.18673e-05, No Iterations 26
time step continuity errors : sum local = 2.11939e-05, global = 2.70153e-06, cumulative = -1.88316e-06
DICPCG:  Solving for p_rgh, Initial residual = 0.000230761, Final residual = 8.24619e-08, No Iterations 114
time step continuity errors : sum local = 5.64075e-08, global = -9.98384e-10, cumulative = -1.88416e-06
smoothSolver:  Solving for epsilon, Initial residual = 0.0112715, Final residual = 4.43845e-07, No Iterations 10
smoothSolver:  Solving for k, Initial residual = 0.021111, Final residual = 4.72309e-07, No Iterations 13
ExecutionTime = 3.11 s  ClockTime = 10 s

Courant Number mean: 0.148185 max: 1.02877
Interface Courant Number mean: 0.0063291 max: 0.608649
deltaT = 0.0028588
Time = 0.118553

smoothSolver:  Solving for alpha.water, Initial residual = 0.00298854, Final residual = 1.63177e-10, No Iterations 4
Phase-1 volume fraction = 0.124752  Min(alpha.water) = -7.89398e-09  Max(alpha.water) = 1
MULES: Correcting alpha.water
MULES: Correcting alpha.water
Phase-1 volume fraction = 0.124752  Min(alpha.water) = -7.89398e-09  Max(alpha.water) = 1
DICPCG:  Solving for p_rgh, Initial residual = 0.0164873, Final residual = 0.00054841, No Iterations 2
time step continuity errors : sum local = 0.000329412, global = -1.43361e-06, cumulative = -3.31778e-06
DICPCG:  Solving for p_rgh, Initial residual = 0.000727503, Final residual = 3.49892e-05, No Iterations 26
time step continuity errors : sum local = 2.06728e-05, global = 3.39842e-06, cumulative = 8.06449e-08
DICPCG:  Solving for p_rgh, Initial residual = 0.000222511, Final residual = 8.52183e-08, No Iterations 114
time step continuity errors : sum local = 5.16282e-08, global = -5.47554e-10, cumulative = 8.00973e-08
smoothSolver:  Solving for epsilon, Initial residual = 0.0107213, Final residual = 6.26658e-07, No Iterations 9
smoothSolver:  Solving for k, Initial residual = 0.0189259, Final residual = 4.97561e-07, No Iterations 12
ExecutionTime = 3.21 s  ClockTime = 11 s

Courant Number mean: 0.139009 max: 0.97441
Interface Courant Number mean: 0.00593299 max: 0.553187
deltaT = 0.0028588
Time = 0.121412

smoothSolver:  Solving for alpha.water, Initial residual = 0.00306143, Final residual = 2.09396e-10, No Iterations 4
Phase-1 volume fraction = 0.124752  Min(alpha.water) = -6.40183e-09  Max(alpha.water) = 1
MULES: Correcting alpha.water
MULES: Correcting alpha.water
Phase-1 volume fraction = 0.124752  Min(alpha.water) = -6.40183e-09  Max(alpha.water) = 1
DICPCG:  Solving for p_rgh, Initial residual = 0.0235364, Final residual = 0.000650184, No Iterations 2
time step continuity errors : sum local = 0.000395314, global = -1.91592e-06, cumulative = -1.83582e-06
DICPCG:  Solving for p_rgh, Initial residual = 0.000854375, Final residual = 3.92759e-05, No Iterations 28
time step continuity errors : sum local = 2.33475e-05, global = 1.17594e-06, cumulative = -6.59889e-07
DICPCG:  Solving for p_rgh, Initial residual = 0.000258233, Final residual = 8.89083e-08, No Iterations 114
time step continuity errors : sum local = 5.42679e-08, global = -1.02907e-09, cumulative = -6.60918e-07
smoothSolver:  Solving for epsilon, Initial residual = 0.0110389, Final residual = 6.60065e-07, No Iterations 9
smoothSolver:  Solving for k, Initial residual = 0.0185278, Final residual = 5.0291e-07, No Iterations 12
ExecutionTime = 3.28 s  ClockTime = 11 s

Courant Number mean: 0.142145 max: 1.00776
Interface Courant Number mean: 0.0063538 max: 0.582195
deltaT = 0.00259891
Time = 0.124011

smoothSolver:  Solving for alpha.water, Initial residual = 0.00284666, Final residual = 1.51368e-10, No Iterations 4
Phase-1 volume fraction = 0.124752  Min(alpha.water) = -5.26182e-09  Max(alpha.water) = 1
MULES: Correcting alpha.water
MULES: Correcting alpha.water
Phase-1 volume fraction = 0.124752  Min(alpha.water) = -5.26182e-09  Max(alpha.water) = 1.00001
DICPCG:  Solving for p_rgh, Initial residual = 0.0240125, Final residual = 0.000692413, No Iterations 2
time step continuity errors : sum local = 0.000366155, global = -7.55528e-07, cumulative = -1.41645e-06
DICPCG:  Solving for p_rgh, Initial residual = 0.000892949, Final residual = 4.42211e-05, No Iterations 25
time step continuity errors : sum local = 2.28786e-05, global = 4.38318e-06, cumulative = 2.96673e-06
DICPCG:  Solving for p_rgh, Initial residual = 0.000248136, Final residual = 9.60976e-08, No Iterations 113
time step continuity errors : sum local = 5.08852e-08, global = -8.86663e-10, cumulative = 2.96584e-06
smoothSolver:  Solving for epsilon, Initial residual = 0.0103479, Final residual = 9.44135e-07, No Iterations 8
smoothSolver:  Solving for k, Initial residual = 0.0164818, Final residual = 5.2607e-07, No Iterations 11
ExecutionTime = 3.35 s  ClockTime = 11 s

Courant Number mean: 0.131856 max: 0.944877
Interface Courant Number mean: 0.00583078 max: 0.511198
deltaT = 0.00259891
Time = 0.12661

smoothSolver:  Solving for alpha.water, Initial residual = 0.00290472, Final residual = 1.81144e-10, No Iterations 4
Phase-1 volume fraction = 0.124752  Min(alpha.water) = -4.30994e-09  Max(alpha.water) = 1
MULES: Correcting alpha.water
MULES: Correcting alpha.water
Phase-1 volume fraction = 0.124752  Min(alpha.water) = -1.5977e-07  Max(alpha.water) = 1
DICPCG:  Solving for p_rgh, Initial residual = 0.0208864, Final residual = 0.000889067, No Iterations 2
time step continuity errors : sum local = 0.00046887, global = -2.11244e-06, cumulative = 8.53405e-07
DICPCG:  Solving for p_rgh, Initial residual = 0.00109277, Final residual = 4.39551e-05, No Iterations 28
time step continuity errors : sum local = 2.27937e-05, global = 1.39226e-06, cumulative = 2.24566e-06
DICPCG:  Solving for p_rgh, Initial residual = 0.000273248, Final residual = 9.92694e-08, No Iterations 89
time step continuity errors : sum local = 5.273e-08, global = -9.10958e-09, cumulative = 2.23655e-06
smoothSolver:  Solving for epsilon, Initial residual = 0.0106321, Final residual = 9.73998e-07, No Iterations 8
smoothSolver:  Solving for k, Initial residual = 0.0162048, Final residual = 5.25372e-07, No Iterations 11
ExecutionTime = 3.43 s  ClockTime = 11 s

Courant Number mean: 0.134441 max: 0.975539
Interface Courant Number mean: 0.0056848 max: 0.557956
deltaT = 0.00259891
Time = 0.129209

smoothSolver:  Solving for alpha.water, Initial residual = 0.0029633, Final residual = 2.05012e-10, No Iterations 4
Phase-1 volume fraction = 0.124752  Min(alpha.water) = -3.52154e-09  Max(alpha.water) = 1
MULES: Correcting alpha.water
MULES: Correcting alpha.water
Phase-1 volume fraction = 0.124752  Min(alpha.water) = -3.52154e-09  Max(alpha.water) = 1.00001
DICPCG:  Solving for p_rgh, Initial residual = 0.0222883, Final residual = 0.000920699, No Iterations 4
time step continuity errors : sum local = 0.000493199, global = -1.04254e-06, cumulative = 1.19401e-06
DICPCG:  Solving for p_rgh, Initial residual = 0.00121466, Final residual = 5.4895e-05, No Iterations 33
time step continuity errors : sum local = 2.88376e-05, global = 3.32051e-06, cumulative = 4.51453e-06
DICPCG:  Solving for p_rgh, Initial residual = 0.000349735, Final residual = 9.52608e-08, No Iterations 119
time step continuity errors : sum local = 5.11757e-08, global = -2.16564e-09, cumulative = 4.51236e-06
smoothSolver:  Solving for epsilon, Initial residual = 0.0110066, Final residual = 3.64931e-07, No Iterations 9
smoothSolver:  Solving for k, Initial residual = 0.0159946, Final residual = 5.24429e-07, No Iterations 11
ExecutionTime = 3.51 s  ClockTime = 12 s

Courant Number mean: 0.137012 max: 1.00808
Interface Courant Number mean: 0.0055414 max: 0.53055
deltaT = 0.00231014
Time = 0.131519

smoothSolver:  Solving for alpha.water, Initial residual = 0.00268864, Final residual = 1.10666e-10, No Iterations 4
Phase-1 volume fraction = 0.124752  Min(alpha.water) = -2.92907e-09  Max(alpha.water) = 1
MULES: Correcting alpha.water
MULES: Correcting alpha.water
Phase-1 volume fraction = 0.124752  Min(alpha.water) = -2.92907e-09  Max(alpha.water) = 1.00001
DICPCG:  Solving for p_rgh, Initial residual = 0.0191583, Final residual = 0.000910918, No Iterations 4
time step continuity errors : sum local = 0.000409154, global = -1.63622e-06, cumulative = 2.87614e-06
DICPCG:  Solving for p_rgh, Initial residual = 0.00115689, Final residual = 4.7582e-05, No Iterations 33
time step continuity errors : sum local = 2.10073e-05, global = 1.64454e-06, cumulative = 4.52068e-06
DICPCG:  Solving for p_rgh, Initial residual = 0.000287079, Final residual = 9.94685e-08, No Iterations 116
time step continuity errors : sum local = 4.4777e-08, global = 3.13642e-10, cumulative = 4.52099e-06
smoothSolver:  Solving for epsilon, Initial residual = 0.0100841, Final residual = 4.53114e-07, No Iterations 8
smoothSolver:  Solving for k, Initial residual = 0.0140183, Final residual = 4.9665e-07, No Iterations 10
ExecutionTime = 3.57 s  ClockTime = 12 s

Courant Number mean: 0.123882 max: 0.923322
Interface Courant Number mean: 0.00516346 max: 0.46818
deltaT = 0.00231014
Time = 0.133829

smoothSolver:  Solving for alpha.water, Initial residual = 0.00273542, Final residual = 1.10387e-10, No Iterations 4
Phase-1 volume fraction = 0.124752  Min(alpha.water) = -2.42992e-09  Max(alpha.water) = 1
MULES: Correcting alpha.water
MULES: Correcting alpha.water
Phase-1 volume fraction = 0.124752  Min(alpha.water) = -2.42992e-09  Max(alpha.water) = 1
DICPCG:  Solving for p_rgh, Initial residual = 0.0187443, Final residual = 0.000800176, No Iterations 4
time step continuity errors : sum local = 0.000357736, global = -9.13205e-07, cumulative = 3.60779e-06
DICPCG:  Solving for p_rgh, Initial residual = 0.00101224, Final residual = 4.72917e-05, No Iterations 32
time step continuity errors : sum local = 2.08014e-05, global = 1.99098e-06, cumulative = 5.59877e-06
DICPCG:  Solving for p_rgh, Initial residual = 0.000255517, Final residual = 9.31956e-08, No Iterations 116
time step continuity errors : sum local = 4.18751e-08, global = 8.87116e-11, cumulative = 5.59886e-06
smoothSolver:  Solving for epsilon, Initial residual = 0.0103796, Final residual = 4.62362e-07, No Iterations 8
smoothSolver:  Solving for k, Initial residual = 0.013848, Final residual = 4.96087e-07, No Iterations 10
ExecutionTime = 3.65 s  ClockTime = 12 s

Courant Number mean: 0.12595 max: 0.952492
Interface Courant Number mean: 0.00535455 max: 0.500961
deltaT = 0.00231014
Time = 0.136139

smoothSolver:  Solving for alpha.water, Initial residual = 0.00278015, Final residual = 1.03727e-10, No Iterations 4
Phase-1 volume fraction = 0.124752  Min(alpha.water) = -2.09195e-09  Max(alpha.water) = 1
MULES: Correcting alpha.water
MULES: Correcting alpha.water
Phase-1 volume fraction = 0.124752  Min(alpha.water) = -3.60621e-08  Max(alpha.water) = 1
DICPCG:  Solving for p_rgh, Initial residual = 0.0238095, Final residual = 0.00080158, No Iterations 3
time step continuity errors : sum local = 0.000362371, global = -1.05753e-06, cumulative = 4.54133e-06
DICPCG:  Solving for p_rgh, Initial residual = 0.00102364, Final residual = 4.65871e-05, No Iterations 31
time step continuity errors : sum local = 2.06472e-05, global = 1.8014e-06, cumulative = 6.34273e-06
DICPCG:  Solving for p_rgh, Initial residual = 0.00027199, Final residual = 8.91211e-08, No Iterations 115
time step continuity errors : sum local = 4.03061e-08, global = -3.97545e-10, cumulative = 6.34233e-06
smoothSolver:  Solving for epsilon, Initial residual = 0.0107268, Final residual = 4.68254e-07, No Iterations 8
smoothSolver:  Solving for k, Initial residual = 0.0137081, Final residual = 4.92128e-07, No Iterations 10
ExecutionTime = 3.72 s  ClockTime = 13 s

Courant Number mean: 0.127962 max: 0.984258
Interface Courant Number mean: 0.00548699 max: 0.478259
deltaT = 0.00231014
Time = 0.138449

smoothSolver:  Solving for alpha.water, Initial residual = 0.00282667, Final residual = 8.96142e-11, No Iterations 4
Phase-1 volume fraction = 0.124752  Min(alpha.water) = -2.03815e-09  Max(alpha.water) = 1
MULES: Correcting alpha.water
MULES: Correcting alpha.water
Phase-1 volume fraction = 0.124752  Min(alpha.water) = -5.65708e-08  Max(alpha.water) = 1.00001
DICPCG:  Solving for p_rgh, Initial residual = 0.0211588, Final residual = 0.000729244, No Iterations 3
time step continuity errors : sum local = 0.000329722, global = -9.62528e-07, cumulative = 5.3798e-06
DICPCG:  Solving for p_rgh, Initial residual = 0.000921284, Final residual = 4.06976e-05, No Iterations 31
time step continuity errors : sum local = 1.81029e-05, global = 1.65343e-06, cumulative = 7.03323e-06
DICPCG:  Solving for p_rgh, Initial residual = 0.00024544, Final residual = 8.15763e-08, No Iterations 115
time step continuity errors : sum local = 3.7018e-08, global = -7.57584e-10, cumulative = 7.03247e-06
smoothSolver:  Solving for epsilon, Initial residual = 0.0110727, Final residual = 4.71038e-07, No Iterations 8
smoothSolver:  Solving for k, Initial residual = 0.0136049, Final residual = 4.86648e-07, No Iterations 10
ExecutionTime = 3.81 s  ClockTime = 13 s

Courant Number mean: 0.12994 max: 1.01898
Interface Courant Number mean: 0.00528543 max: 0.48422
deltaT = 0.00192512
Time = 0.140374

smoothSolver:  Solving for alpha.water, Initial residual = 0.0023942, Final residual = 5.78221e-09, No Iterations 3
Phase-1 volume fraction = 0.124752  Min(alpha.water) = -4.77972e-08  Max(alpha.water) = 1
MULES: Correcting alpha.water
MULES: Correcting alpha.water
Phase-1 volume fraction = 0.124752  Min(alpha.water) = -4.77972e-08  Max(alpha.water) = 1
DICPCG:  Solving for p_rgh, Initial residual = 0.0156079, Final residual = 0.00061653, No Iterations 3
time step continuity errors : sum local = 0.000212179, global = -6.98728e-07, cumulative = 6.33374e-06
DICPCG:  Solving for p_rgh, Initial residual = 0.000779571, Final residual = 3.77896e-05, No Iterations 30
time step continuity errors : sum local = 1.28282e-05, global = 1.25685e-06, cumulative = 7.59059e-06
DICPCG:  Solving for p_rgh, Initial residual = 0.000200387, Final residual = 8.99738e-08, No Iterations 113
time step continuity errors : sum local = 3.103e-08, global = -1.02315e-09, cumulative = 7.58957e-06
smoothSolver:  Solving for epsilon, Initial residual = 0.009525, Final residual = 4.2258e-07, No Iterations 7
smoothSolver:  Solving for k, Initial residual = 0.0112336, Final residual = 8.81753e-07, No Iterations 8
ExecutionTime = 3.88 s  ClockTime = 13 s

Courant Number mean: 0.109726 max: 0.875372
Interface Courant Number mean: 0.00449796 max: 0.430702
deltaT = 0.00192512
Time = 0.1423

smoothSolver:  Solving for alpha.water, Initial residual = 0.00242969, Final residual = 4.29641e-09, No Iterations 3
Phase-1 volume fraction = 0.124752  Min(alpha.water) = -4.03085e-08  Max(alpha.water) = 1
MULES: Correcting alpha.water
MULES: Correcting alpha.water
Phase-1 volume fraction = 0.124752  Min(alpha.water) = -4.03085e-08  Max(alpha.water) = 1
DICPCG:  Solving for p_rgh, Initial residual = 0.0138726, Final residual = 0.000560191, No Iterations 3
time step continuity errors : sum local = 0.000192086, global = -5.5231e-07, cumulative = 7.03726e-06
DICPCG:  Solving for p_rgh, Initial residual = 0.000712211, Final residual = 3.02607e-05, No Iterations 31
time step continuity errors : sum local = 1.0257e-05, global = 9.64552e-07, cumulative = 8.00181e-06
DICPCG:  Solving for p_rgh, Initial residual = 0.000194849, Final residual = 8.29858e-08, No Iterations 113
time step continuity errors : sum local = 2.86548e-08, global = -4.75544e-10, cumulative = 8.00133e-06
smoothSolver:  Solving for epsilon, Initial residual = 0.00987671, Final residual = 4.25858e-07, No Iterations 7
smoothSolver:  Solving for k, Initial residual = 0.0111773, Final residual = 8.7961e-07, No Iterations 8
ExecutionTime = 3.96 s  ClockTime = 13 s

Courant Number mean: 0.11116 max: 0.904151
Interface Courant Number mean: 0.00442505 max: 0.417398
deltaT = 0.00192512
Time = 0.144225

smoothSolver:  Solving for alpha.water, Initial residual = 0.00246326, Final residual = 3.07579e-09, No Iterations 3
Phase-1 volume fraction = 0.124752  Min(alpha.water) = -3.39346e-08  Max(alpha.water) = 1
MULES: Correcting alpha.water
MULES: Correcting alpha.water
Phase-1 volume fraction = 0.124752  Min(alpha.water) = -3.39346e-08  Max(alpha.water) = 1
DICPCG:  Solving for p_rgh, Initial residual = 0.0216455, Final residual = 0.000735509, No Iterations 3
time step continuity errors : sum local = 0.000257275, global = -4.33145e-07, cumulative = 7.56819e-06
DICPCG:  Solving for p_rgh, Initial residual = 0.000955397, Final residual = 4.23512e-05, No Iterations 31
time step continuity errors : sum local = 1.4527e-05, global = 1.67694e-06, cumulative = 9.24513e-06
DICPCG:  Solving for p_rgh, Initial residual = 0.000259119, Final residual = 8.97556e-08, No Iterations 114
time step continuity errors : sum local = 3.13436e-08, global = -5.33808e-10, cumulative = 9.2446e-06
smoothSolver:  Solving for epsilon, Initial residual = 0.0102474, Final residual = 4.26723e-07, No Iterations 7
smoothSolver:  Solving for k, Initial residual = 0.0111307, Final residual = 8.75558e-07, No Iterations 8
ExecutionTime = 4.02 s  ClockTime = 13 s

Courant Number mean: 0.112572 max: 0.935815
Interface Courant Number mean: 0.00450306 max: 0.491553
deltaT = 0.00192512
Time = 0.14615

smoothSolver:  Solving for alpha.water, Initial residual = 0.00249374, Final residual = 2.13832e-09, No Iterations 3
Phase-1 volume fraction = 0.124752  Min(alpha.water) = -2.85213e-08  Max(alpha.water) = 1
MULES: Correcting alpha.water
MULES: Correcting alpha.water
Phase-1 volume fraction = 0.124752  Min(alpha.water) = -2.85213e-08  Max(alpha.water) = 1
DICPCG:  Solving for p_rgh, Initial residual = 0.0216804, Final residual = 0.000746707, No Iterations 3
time step continuity errors : sum local = 0.000259854, global = -7.57805e-07, cumulative = 8.48679e-06
DICPCG:  Solving for p_rgh, Initial residual = 0.000989192, Final residual = 4.59358e-05, No Iterations 29
time step continuity errors : sum local = 1.56963e-05, global = 1.83685e-06, cumulative = 1.03236e-05
DICPCG:  Solving for p_rgh, Initial residual = 0.000281516, Final residual = 8.44691e-08, No Iterations 113
time step continuity errors : sum local = 2.93707e-08, global = -5.36464e-10, cumulative = 1.03231e-05
smoothSolver:  Solving for epsilon, Initial residual = 0.0106721, Final residual = 4.24313e-07, No Iterations 7
smoothSolver:  Solving for k, Initial residual = 0.0110898, Final residual = 8.65735e-07, No Iterations 8
ExecutionTime = 4.07 s  ClockTime = 14 s

Courant Number mean: 0.113951 max: 0.970803
Interface Courant Number mean: 0.00459246 max: 0.48374
deltaT = 0.00192512
Time = 0.148075

smoothSolver:  Solving for alpha.water, Initial residual = 0.00252614, Final residual = 1.7839e-09, No Iterations 3
Phase-1 volume fraction = 0.124752  Min(alpha.water) = -2.39339e-08  Max(alpha.water) = 1
MULES: Correcting alpha.water
MULES: Correcting alpha.water
Phase-1 volume fraction = 0.124752  Min(alpha.water) = -8.737e-08  Max(alpha.water) = 1
DICPCG:  Solving for p_rgh, Initial residual = 0.0189882, Final residual = 0.000789991, No Iterations 3
time step continuity errors : sum local = 0.0002737, global = -8.23192e-07, cumulative = 9.49991e-06
DICPCG:  Solving for p_rgh, Initial residual = 0.00105325, Final residual = 4.60871e-05, No Iterations 29
time step continuity errors : sum local = 1.57277e-05, global = 1.94177e-06, cumulative = 1.14417e-05
DICPCG:  Solving for p_rgh, Initial residual = 0.000304577, Final residual = 8.30874e-08, No Iterations 113
time step continuity errors : sum local = 2.88395e-08, global = -8.72478e-10, cumulative = 1.14408e-05
smoothSolver:  Solving for epsilon, Initial residual = 0.0111518, Final residual = 4.1822e-07, No Iterations 7
smoothSolver:  Solving for k, Initial residual = 0.0110786, Final residual = 8.52185e-07, No Iterations 8
ExecutionTime = 4.15 s  ClockTime = 14 s

Courant Number mean: 0.115298 max: 1.00938
Interface Courant Number mean: 0.00460152 max: 0.481351
deltaT = 0.00192512
Time = 0.15

smoothSolver:  Solving for alpha.water, Initial residual = 0.00255746, Final residual = 1.75533e-09, No Iterations 3
Phase-1 volume fraction = 0.124752  Min(alpha.water) = -2.00541e-08  Max(alpha.water) = 1
MULES: Correcting alpha.water
MULES: Correcting alpha.water
Phase-1 volume fraction = 0.124752  Min(alpha.water) = -2.00541e-08  Max(alpha.water) = 1.00001
DICPCG:  Solving for p_rgh, Initial residual = 0.0139656, Final residual = 0.000529929, No Iterations 4
time step continuity errors : sum local = 0.000182939, global = -8.65235e-07, cumulative = 1.05756e-05
DICPCG:  Solving for p_rgh, Initial residual = 0.000738438, Final residual = 3.56768e-05, No Iterations 31
time step continuity errors : sum local = 1.21761e-05, global = 1.51043e-06, cumulative = 1.2086e-05
DICPCG:  Solving for p_rgh, Initial residual = 0.000234919, Final residual = 8.66098e-08, No Iterations 112
time step continuity errors : sum local = 3.0069e-08, global = -1.00919e-09, cumulative = 1.2085e-05
smoothSolver:  Solving for epsilon, Initial residual = 0.0117571, Final residual = 4.13447e-07, No Iterations 7
smoothSolver:  Solving for k, Initial residual = 0.0111082, Final residual = 8.42787e-07, No Iterations 8
ExecutionTime = 4.23 s  ClockTime = 14 s

Courant Number mean: 0.116626 max: 1.05192
Interface Courant Number mean: 0.00474788 max: 0.790109
deltaT = 0.00178571
Time = 0.151786

smoothSolver:  Solving for alpha.water, Initial residual = 0.00240513, Final residual = 1.12747e-09, No Iterations 3
Phase-1 volume fraction = 0.124752  Min(alpha.water) = -1.69783e-08  Max(alpha.water) = 1
MULES: Correcting alpha.water
MULES: Correcting alpha.water
Phase-1 volume fraction = 0.124752  Min(alpha.water) = -1.69783e-08  Max(alpha.water) = 1.00001
DICPCG:  Solving for p_rgh, Initial residual = 0.0165623, Final residual = 0.000546482, No Iterations 4
time step continuity errors : sum local = 0.000170739, global = -6.3509e-07, cumulative = 1.14499e-05
DICPCG:  Solving for p_rgh, Initial residual = 0.00076148, Final residual = 3.38141e-05, No Iterations 32
time step continuity errors : sum local = 1.04009e-05, global = 1.22699e-06, cumulative = 1.26769e-05
DICPCG:  Solving for p_rgh, Initial residual = 0.000242512, Final residual = 8.93258e-08, No Iterations 112
time step continuity errors : sum local = 2.78986e-08, global = -8.76885e-10, cumulative = 1.2676e-05
smoothSolver:  Solving for epsilon, Initial residual = 0.0115304, Final residual = 8.92048e-07, No Iterations 6
smoothSolver:  Solving for k, Initial residual = 0.0103105, Final residual = 4.89377e-07, No Iterations 8
ExecutionTime = 4.28 s  ClockTime = 14 s

Courant Number mean: 0.10934 max: 1.01659
Interface Courant Number mean: 0.00440524 max: 0.74094
deltaT = 0.00172194
Time = 0.153508

smoothSolver:  Solving for alpha.water, Initial residual = 0.00234332, Final residual = 9.11717e-10, No Iterations 3
Phase-1 volume fraction = 0.124752  Min(alpha.water) = -1.44331e-08  Max(alpha.water) = 1
MULES: Correcting alpha.water
MULES: Correcting alpha.water
Phase-1 volume fraction = 0.124752  Min(alpha.water) = -1.44331e-08  Max(alpha.water) = 1
DICPCG:  Solving for p_rgh, Initial residual = 0.0185404, Final residual = 0.000651977, No Iterations 4
time step continuity errors : sum local = 0.000193104, global = -5.66572e-07, cumulative = 1.21094e-05
DICPCG:  Solving for p_rgh, Initial residual = 0.000901541, Final residual = 4.49187e-05, No Iterations 31
time step continuity errors : sum local = 1.3086e-05, global = 1.60604e-06, cumulative = 1.37155e-05
DICPCG:  Solving for p_rgh, Initial residual = 0.000286552, Final residual = 8.2519e-08, No Iterations 113
time step continuity errors : sum local = 2.44036e-08, global = -6.88842e-10, cumulative = 1.37148e-05
smoothSolver:  Solving for epsilon, Initial residual = 0.0118057, Final residual = 7.01419e-07, No Iterations 6
smoothSolver:  Solving for k, Initial residual = 0.00998398, Final residual = 3.73258e-07, No Iterations 8
ExecutionTime = 4.34 s  ClockTime = 15 s

Courant Number mean: 0.10651 max: 1.02301
Interface Courant Number mean: 0.00429492 max: 0.722119
deltaT = 0.00166044
Time = 0.155168

smoothSolver:  Solving for alpha.water, Initial residual = 0.00228784, Final residual = 7.47915e-10, No Iterations 3
Phase-1 volume fraction = 0.124752  Min(alpha.water) = -1.23186e-08  Max(alpha.water) = 1
MULES: Correcting alpha.water
MULES: Correcting alpha.water
Phase-1 volume fraction = 0.124752  Min(alpha.water) = -1.23186e-08  Max(alpha.water) = 1.00001
DICPCG:  Solving for p_rgh, Initial residual = 0.0184895, Final residual = 0.000746401, No Iterations 4
time step continuity errors : sum local = 0.000208431, global = -6.8967e-07, cumulative = 1.30251e-05
DICPCG:  Solving for p_rgh, Initial residual = 0.0010284, Final residual = 4.88366e-05, No Iterations 32
time step continuity errors : sum local = 1.34221e-05, global = 1.43679e-06, cumulative = 1.44619e-05
DICPCG:  Solving for p_rgh, Initial residual = 0.000338826, Final residual = 8.48046e-08, No Iterations 114
time step continuity errors : sum local = 2.36452e-08, global = -5.3728e-10, cumulative = 1.44614e-05
smoothSolver:  Solving for epsilon, Initial residual = 0.0121189, Final residual = 5.45123e-07, No Iterations 6
smoothSolver:  Solving for k, Initial residual = 0.00968516, Final residual = 8.93512e-07, No Iterations 7
ExecutionTime = 4.42 s  ClockTime = 15 s

Courant Number mean: 0.103694 max: 1.03018
Interface Courant Number mean: 0.00407878 max: 0.836628
deltaT = 0.00160114
Time = 0.156769

smoothSolver:  Solving for alpha.water, Initial residual = 0.00222655, Final residual = 6.23582e-10, No Iterations 3
Phase-1 volume fraction = 0.124752  Min(alpha.water) = -1.05575e-08  Max(alpha.water) = 1
MULES: Correcting alpha.water
MULES: Correcting alpha.water
Phase-1 volume fraction = 0.124752  Min(alpha.water) = -1.05575e-08  Max(alpha.water) = 1
DICPCG:  Solving for p_rgh, Initial residual = 0.0173934, Final residual = 0.000677592, No Iterations 4
time step continuity errors : sum local = 0.000178177, global = -6.58806e-07, cumulative = 1.38026e-05
DICPCG:  Solving for p_rgh, Initial residual = 0.000908649, Final residual = 3.89159e-05, No Iterations 33
time step continuity errors : sum local = 1.00917e-05, global = 1.29738e-06, cumulative = 1.51e-05
DICPCG:  Solving for p_rgh, Initial residual = 0.000284282, Final residual = 9.59511e-08, No Iterations 113
time step continuity errors : sum local = 2.52313e-08, global = -6.73554e-10, cumulative = 1.50993e-05
smoothSolver:  Solving for epsilon, Initial residual = 0.0124444, Final residual = 4.17731e-07, No Iterations 6
smoothSolver:  Solving for k, Initial residual = 0.0094095, Final residual = 6.84788e-07, No Iterations 7
ExecutionTime = 4.46 s  ClockTime = 15 s

Courant Number mean: 0.100899 max: 1.03679
Interface Courant Number mean: 0.00399875 max: 0.822311
deltaT = 0.00154396
Time = 0.158313

smoothSolver:  Solving for alpha.water, Initial residual = 0.00216983, Final residual = 5.25632e-10, No Iterations 3
Phase-1 volume fraction = 0.124752  Min(alpha.water) = -9.09217e-09  Max(alpha.water) = 1
MULES: Correcting alpha.water
MULES: Correcting alpha.water
Phase-1 volume fraction = 0.124752  Min(alpha.water) = -9.09217e-09  Max(alpha.water) = 1
DICPCG:  Solving for p_rgh, Initial residual = 0.0112484, Final residual = 0.000401487, No Iterations 3
time step continuity errors : sum local = 9.96939e-05, global = -5.11912e-07, cumulative = 1.45874e-05
DICPCG:  Solving for p_rgh, Initial residual = 0.000519029, Final residual = 2.54024e-05, No Iterations 29
time step continuity errors : sum local = 6.24936e-06, global = 4.61911e-07, cumulative = 1.50493e-05
DICPCG:  Solving for p_rgh, Initial residual = 0.000148982, Final residual = 9.7847e-08, No Iterations 110
time step continuity errors : sum local = 2.44054e-08, global = -7.15709e-10, cumulative = 1.50486e-05
smoothSolver:  Solving for epsilon, Initial residual = 0.0128419, Final residual = 3.21278e-07, No Iterations 6
smoothSolver:  Solving for k, Initial residual = 0.00915727, Final residual = 5.27624e-07, No Iterations 7
ExecutionTime = 4.51 s  ClockTime = 15 s

Courant Number mean: 0.0981292 max: 1.04183
Interface Courant Number mean: 0.00370862 max: 0.809642
deltaT = 0.00143748
Time = 0.159751

smoothSolver:  Solving for alpha.water, Initial residual = 0.00204023, Final residual = 3.59952e-10, No Iterations 3
Phase-1 volume fraction = 0.124752  Min(alpha.water) = -8.17801e-09  Max(alpha.water) = 1
MULES: Correcting alpha.water
MULES: Correcting alpha.water
Phase-1 volume fraction = 0.124752  Min(alpha.water) = -8.17801e-09  Max(alpha.water) = 1.00001
[...]
time step continuity errors : sum local = 3.33871e-05, global = 2.2949e-07, cumulative = 5.78996e-05
DICPCG:  Solving for p_rgh, Initial residual = 0.000579663, Final residual = 9.83083e-08, No Iterations 127
time step continuity errors : sum local = 4.13456e-08, global = -8.96917e-10, cumulative = 5.78987e-05
smoothSolver:  Solving for epsilon, Initial residual = 0.0123774, Final residual = 6.81054e-07, No Iterations 8
smoothSolver:  Solving for k, Initial residual = 0.00910743, Final residual = 5.1299e-07, No Iterations 10
ExecutionTime = 12.37 s  ClockTime = 41 s

Courant Number mean: 0.304556 max: 0.944188
Interface Courant Number mean: 0.0231424 max: 0.909198
deltaT = 0.0026455
Time = 0.362963

smoothSolver:  Solving for alpha.water, Initial residual = 0.00862802, Final residual = 6.61098e-09, No Iterations 3
Phase-1 volume fraction = 0.124752  Min(alpha.water) = -8.94401e-05  Max(alpha.water) = 1
MULES: Correcting alpha.water
MULES: Correcting alpha.water
Phase-1 volume fraction = 0.124752  Min(alpha.water) = -0.00018071  Max(alpha.water) = 1.00042
DICPCG:  Solving for p_rgh, Initial residual = 0.0310467, Final residual = 0.00110709, No Iterations 3
time step continuity errors : sum local = 0.000467934, global = 1.29862e-06, cumulative = 5.91973e-05
DICPCG:  Solving for p_rgh, Initial residual = 0.00158831, Final residual = 7.83045e-05, No Iterations 18
time step continuity errors : sum local = 3.2811e-05, global = -5.69588e-07, cumulative = 5.86277e-05
DICPCG:  Solving for p_rgh, Initial residual = 0.000581468, Final residual = 9.28448e-08, No Iterations 128
time step continuity errors : sum local = 3.87411e-08, global = -8.13573e-10, cumulative = 5.86269e-05
smoothSolver:  Solving for epsilon, Initial residual = 0.0121784, Final residual = 6.88457e-07, No Iterations 8
smoothSolver:  Solving for k, Initial residual = 0.0089699, Final residual = 5.15606e-07, No Iterations 10
ExecutionTime = 12.42 s  ClockTime = 41 s

Courant Number mean: 0.306802 max: 0.932867
Interface Courant Number mean: 0.0235697 max: 0.899531
deltaT = 0.0026455
Time = 0.365608

smoothSolver:  Solving for alpha.water, Initial residual = 0.00873324, Final residual = 6.16764e-09, No Iterations 3
Phase-1 volume fraction = 0.124752  Min(alpha.water) = -7.36938e-05  Max(alpha.water) = 1
MULES: Correcting alpha.water
MULES: Correcting alpha.water
Phase-1 volume fraction = 0.124752  Min(alpha.water) = -7.36938e-05  Max(alpha.water) = 1.00063
DICPCG:  Solving for p_rgh, Initial residual = 0.0305533, Final residual = 0.00105546, No Iterations 3
time step continuity errors : sum local = 0.000446691, global = 1.80291e-06, cumulative = 6.04298e-05
DICPCG:  Solving for p_rgh, Initial residual = 0.00150605, Final residual = 7.39856e-05, No Iterations 18
time step continuity errors : sum local = 3.09934e-05, global = 5.85323e-07, cumulative = 6.10151e-05
DICPCG:  Solving for p_rgh, Initial residual = 0.000539504, Final residual = 8.9211e-08, No Iterations 126
time step continuity errors : sum local = 3.72234e-08, global = -2.71659e-09, cumulative = 6.10124e-05
smoothSolver:  Solving for epsilon, Initial residual = 0.0120766, Final residual = 6.95859e-07, No Iterations 8
smoothSolver:  Solving for k, Initial residual = 0.00887674, Final residual = 5.17941e-07, No Iterations 10
ExecutionTime = 12.47 s  ClockTime = 41 s

Courant Number mean: 0.309024 max: 0.921563
Interface Courant Number mean: 0.0241369 max: 0.868227
deltaT = 0.00286596
Time = 0.368474

smoothSolver:  Solving for alpha.water, Initial residual = 0.00950245, Final residual = 9.24423e-09, No Iterations 3
Phase-1 volume fraction = 0.124752  Min(alpha.water) = -5.99185e-05  Max(alpha.water) = 1
MULES: Correcting alpha.water
MULES: Correcting alpha.water
Phase-1 volume fraction = 0.124752  Min(alpha.water) = -0.000260809  Max(alpha.water) = 1.00088
DICPCG:  Solving for p_rgh, Initial residual = 0.038346, Final residual = 0.00131046, No Iterations 3
time step continuity errors : sum local = 0.000625121, global = 1.41361e-06, cumulative = 6.2426e-05
DICPCG:  Solving for p_rgh, Initial residual = 0.00187751, Final residual = 9.31133e-05, No Iterations 19
time step continuity errors : sum local = 4.3713e-05, global = -5.34049e-07, cumulative = 6.1892e-05
DICPCG:  Solving for p_rgh, Initial residual = 0.00068722, Final residual = 8.81885e-08, No Iterations 130
time step continuity errors : sum local = 4.12098e-08, global = -1.77272e-11, cumulative = 6.18919e-05
smoothSolver:  Solving for epsilon, Initial residual = 0.013028, Final residual = 4.75521e-07, No Iterations 9
smoothSolver:  Solving for k, Initial residual = 0.00955363, Final residual = 8.99185e-07, No Iterations 10
ExecutionTime = 12.58 s  ClockTime = 42 s

Courant Number mean: 0.337378 max: 0.985525
Interface Courant Number mean: 0.0263183 max: 0.93065
deltaT = 0.00286596
Time = 0.37134

smoothSolver:  Solving for alpha.water, Initial residual = 0.00950053, Final residual = 8.57919e-09, No Iterations 3
Phase-1 volume fraction = 0.124752  Min(alpha.water) = -4.87616e-05  Max(alpha.water) = 1
MULES: Correcting alpha.water
MULES: Correcting alpha.water
Phase-1 volume fraction = 0.124752  Min(alpha.water) = -0.000104156  Max(alpha.water) = 1.00021
DICPCG:  Solving for p_rgh, Initial residual = 0.0384033, Final residual = 0.00134505, No Iterations 3
time step continuity errors : sum local = 0.00063444, global = 1.92799e-06, cumulative = 6.38199e-05
DICPCG:  Solving for p_rgh, Initial residual = 0.00194372, Final residual = 8.59326e-05, No Iterations 18
time step continuity errors : sum local = 3.99192e-05, global = 2.53078e-07, cumulative = 6.4073e-05
DICPCG:  Solving for p_rgh, Initial residual = 0.000692798, Final residual = 9.56305e-08, No Iterations 129
time step continuity errors : sum local = 4.42405e-08, global = -9.75106e-10, cumulative = 6.4072e-05
smoothSolver:  Solving for epsilon, Initial residual = 0.0129275, Final residual = 4.81624e-07, No Iterations 9
smoothSolver:  Solving for k, Initial residual = 0.00947064, Final residual = 9.00822e-07, No Iterations 10
ExecutionTime = 12.63 s  ClockTime = 42 s

Courant Number mean: 0.339898 max: 0.973081
Interface Courant Number mean: 0.0271563 max: 0.920592
deltaT = 0.00286596
Time = 0.374206

smoothSolver:  Solving for alpha.water, Initial residual = 0.00950742, Final residual = 8.03484e-09, No Iterations 3
Phase-1 volume fraction = 0.124752  Min(alpha.water) = -4.15753e-05  Max(alpha.water) = 1
MULES: Correcting alpha.water
MULES: Correcting alpha.water
Phase-1 volume fraction = 0.124752  Min(alpha.water) = -9.10803e-05  Max(alpha.water) = 1.00015
DICPCG:  Solving for p_rgh, Initial residual = 0.0362698, Final residual = 0.0012223, No Iterations 3
time step continuity errors : sum local = 0.000568834, global = 1.58681e-06, cumulative = 6.56588e-05
DICPCG:  Solving for p_rgh, Initial residual = 0.00174921, Final residual = 8.57998e-05, No Iterations 18
time step continuity errors : sum local = 3.94118e-05, global = -1.29223e-07, cumulative = 6.55296e-05
DICPCG:  Solving for p_rgh, Initial residual = 0.000629289, Final residual = 9.76355e-08, No Iterations 126
time step continuity errors : sum local = 4.46737e-08, global = -2.06482e-09, cumulative = 6.55275e-05
smoothSolver:  Solving for epsilon, Initial residual = 0.0127684, Final residual = 4.87626e-07, No Iterations 9
smoothSolver:  Solving for k, Initial residual = 0.00937383, Final residual = 9.01294e-07, No Iterations 10
ExecutionTime = 12.71 s  ClockTime = 42 s

Courant Number mean: 0.342378 max: 0.961185
Interface Courant Number mean: 0.0267814 max: 0.910522
deltaT = 0.00286596
Time = 0.377072

smoothSolver:  Solving for alpha.water, Initial residual = 0.00950183, Final residual = 7.42445e-09, No Iterations 3
Phase-1 volume fraction = 0.124752  Min(alpha.water) = -3.58429e-05  Max(alpha.water) = 1
MULES: Correcting alpha.water
MULES: Correcting alpha.water
Phase-1 volume fraction = 0.124752  Min(alpha.water) = -0.000151996  Max(alpha.water) = 1.00012
DICPCG:  Solving for p_rgh, Initial residual = 0.0371332, Final residual = 0.00132341, No Iterations 3
time step continuity errors : sum local = 0.000607619, global = 1.77565e-06, cumulative = 6.73032e-05
DICPCG:  Solving for p_rgh, Initial residual = 0.00189164, Final residual = 8.3004e-05, No Iterations 19
time step continuity errors : sum local = 3.76896e-05, global = -5.82695e-07, cumulative = 6.67205e-05
DICPCG:  Solving for p_rgh, Initial residual = 0.000686232, Final residual = 8.89015e-08, No Iterations 131
time step continuity errors : sum local = 4.0201e-08, global = -1.85558e-11, cumulative = 6.67205e-05
smoothSolver:  Solving for epsilon, Initial residual = 0.0125885, Final residual = 4.93481e-07, No Iterations 9
smoothSolver:  Solving for k, Initial residual = 0.00927914, Final residual = 9.00948e-07, No Iterations 10
ExecutionTime = 12.77 s  ClockTime = 42 s

Courant Number mean: 0.344845 max: 0.949401
Interface Courant Number mean: 0.0266552 max: 0.90042
deltaT = 0.00286596
Time = 0.379938

smoothSolver:  Solving for alpha.water, Initial residual = 0.00953995, Final residual = 6.82025e-09, No Iterations 3
Phase-1 volume fraction = 0.124752  Min(alpha.water) = -3.0746e-05  Max(alpha.water) = 1
MULES: Correcting alpha.water
MULES: Correcting alpha.water
Phase-1 volume fraction = 0.124752  Min(alpha.water) = -0.000101844  Max(alpha.water) = 1.00026
DICPCG:  Solving for p_rgh, Initial residual = 0.0337015, Final residual = 0.00123789, No Iterations 3
time step continuity errors : sum local = 0.000568657, global = 1.97944e-06, cumulative = 6.86999e-05
DICPCG:  Solving for p_rgh, Initial residual = 0.0017667, Final residual = 8.29689e-05, No Iterations 18
time step continuity errors : sum local = 3.77801e-05, global = -1.9088e-07, cumulative = 6.8509e-05
DICPCG:  Solving for p_rgh, Initial residual = 0.000626263, Final residual = 9.45118e-08, No Iterations 129
time step continuity errors : sum local = 4.28686e-08, global = 1.0532e-10, cumulative = 6.85091e-05
smoothSolver:  Solving for epsilon, Initial residual = 0.0124417, Final residual = 4.99058e-07, No Iterations 9
smoothSolver:  Solving for k, Initial residual = 0.00919459, Final residual = 9.00278e-07, No Iterations 10
ExecutionTime = 12.83 s  ClockTime = 42 s

Courant Number mean: 0.347288 max: 0.937721
Interface Courant Number mean: 0.0269705 max: 0.876289
deltaT = 0.00286596
Time = 0.382804

smoothSolver:  Solving for alpha.water, Initial residual = 0.00960601, Final residual = 6.37562e-09, No Iterations 3
Phase-1 volume fraction = 0.124752  Min(alpha.water) = -2.62613e-05  Max(alpha.water) = 1
MULES: Correcting alpha.water
MULES: Correcting alpha.water
Phase-1 volume fraction = 0.124752  Min(alpha.water) = -0.000534579  Max(alpha.water) = 1.00055
DICPCG:  Solving for p_rgh, Initial residual = 0.0403517, Final residual = 0.00133375, No Iterations 3
time step continuity errors : sum local = 0.000619547, global = 1.81219e-06, cumulative = 7.03213e-05
DICPCG:  Solving for p_rgh, Initial residual = 0.00191244, Final residual = 8.77566e-05, No Iterations 19
time step continuity errors : sum local = 4.00953e-05, global = -1.53141e-07, cumulative = 7.01682e-05
DICPCG:  Solving for p_rgh, Initial residual = 0.000693683, Final residual = 9.36253e-08, No Iterations 129
time step continuity errors : sum local = 4.26174e-08, global = 1.61291e-10, cumulative = 7.01683e-05
smoothSolver:  Solving for epsilon, Initial residual = 0.0123207, Final residual = 5.06064e-07, No Iterations 9
smoothSolver:  Solving for k, Initial residual = 0.00913237, Final residual = 9.05303e-07, No Iterations 10
ExecutionTime = 12.91 s  ClockTime = 43 s

Courant Number mean: 0.349743 max: 0.926135
Interface Courant Number mean: 0.0271098 max: 0.864066
deltaT = 0.00286596
Time = 0.38567

smoothSolver:  Solving for alpha.water, Initial residual = 0.00964989, Final residual = 5.9374e-09, No Iterations 3
Phase-1 volume fraction = 0.124752  Min(alpha.water) = -0.000447612  Max(alpha.water) = 1
MULES: Correcting alpha.water
MULES: Correcting alpha.water
Phase-1 volume fraction = 0.124752  Min(alpha.water) = -0.000447612  Max(alpha.water) = 1.00073
DICPCG:  Solving for p_rgh, Initial residual = 0.0404246, Final residual = 0.00145301, No Iterations 3
time step continuity errors : sum local = 0.000667541, global = 1.66974e-06, cumulative = 7.18381e-05
DICPCG:  Solving for p_rgh, Initial residual = 0.00208267, Final residual = 9.98643e-05, No Iterations 18
time step continuity errors : sum local = 4.518e-05, global = -1.68798e-07, cumulative = 7.16693e-05
DICPCG:  Solving for p_rgh, Initial residual = 0.000742643, Final residual = 9.411e-08, No Iterations 128
time step continuity errors : sum local = 4.24138e-08, global = -3.65919e-10, cumulative = 7.16689e-05
smoothSolver:  Solving for epsilon, Initial residual = 0.0122365, Final residual = 5.12299e-07, No Iterations 9
smoothSolver:  Solving for k, Initial residual = 0.00910013, Final residual = 9.06378e-07, No Iterations 10
ExecutionTime = 12.98 s  ClockTime = 43 s

Courant Number mean: 0.35217 max: 0.914643
Interface Courant Number mean: 0.026949 max: 0.852328
deltaT = 0.00286596
Time = 0.388536

smoothSolver:  Solving for alpha.water, Initial residual = 0.00964529, Final residual = 5.45944e-09, No Iterations 3
Phase-1 volume fraction = 0.124752  Min(alpha.water) = -0.000369816  Max(alpha.water) = 1
MULES: Correcting alpha.water
MULES: Correcting alpha.water
Phase-1 volume fraction = 0.124752  Min(alpha.water) = -0.000369816  Max(alpha.water) = 1.00016
DICPCG:  Solving for p_rgh, Initial residual = 0.0407943, Final residual = 0.00138625, No Iterations 3
time step continuity errors : sum local = 0.000631596, global = 1.81274e-06, cumulative = 7.34817e-05
DICPCG:  Solving for p_rgh, Initial residual = 0.00198069, Final residual = 9.77047e-05, No Iterations 17
time step continuity errors : sum local = 4.38441e-05, global = 3.59887e-07, cumulative = 7.38415e-05
DICPCG:  Solving for p_rgh, Initial residual = 0.00070642, Final residual = 9.29716e-08, No Iterations 128
time step continuity errors : sum local = 4.15794e-08, global = -3.79609e-10, cumulative = 7.38412e-05
smoothSolver:  Solving for epsilon, Initial residual = 0.0121699, Final residual = 5.18349e-07, No Iterations 9
smoothSolver:  Solving for k, Initial residual = 0.00906077, Final residual = 9.05554e-07, No Iterations 10
ExecutionTime = 13.05 s  ClockTime = 43 s

Courant Number mean: 0.354571 max: 0.903228
Interface Courant Number mean: 0.0266518 max: 0.839962
deltaT = 0.00286596
Time = 0.391402

smoothSolver:  Solving for alpha.water, Initial residual = 0.00966677, Final residual = 5.03704e-09, No Iterations 3
Phase-1 volume fraction = 0.124752  Min(alpha.water) = -0.000302663  Max(alpha.water) = 1
MULES: Correcting alpha.water
MULES: Correcting alpha.water
Phase-1 volume fraction = 0.124752  Min(alpha.water) = -0.000433701  Max(alpha.water) = 1.00009
DICPCG:  Solving for p_rgh, Initial residual = 0.0415918, Final residual = 0.0014151, No Iterations 3
time step continuity errors : sum local = 0.000638498, global = 1.58615e-06, cumulative = 7.54273e-05
DICPCG:  Solving for p_rgh, Initial residual = 0.00203115, Final residual = 0.000100126, No Iterations 18
time step continuity errors : sum local = 4.45305e-05, global = -3.5645e-07, cumulative = 7.50709e-05
DICPCG:  Solving for p_rgh, Initial residual = 0.000739778, Final residual = 8.27022e-08, No Iterations 130
time step continuity errors : sum local = 3.66577e-08, global = 7.9728e-10, cumulative = 7.50717e-05
smoothSolver:  Solving for epsilon, Initial residual = 0.0121357, Final residual = 5.24221e-07, No Iterations 9
smoothSolver:  Solving for k, Initial residual = 0.00903636, Final residual = 9.0349e-07, No Iterations 10
ExecutionTime = 13.12 s  ClockTime = 43 s

Courant Number mean: 0.356975 max: 0.891896
Interface Courant Number mean: 0.0269679 max: 0.828584
deltaT = 0.00286596
Time = 0.394268

smoothSolver:  Solving for alpha.water, Initial residual = 0.00970761, Final residual = 4.69385e-09, No Iterations 3
Phase-1 volume fraction = 0.124752  Min(alpha.water) = -0.000246047  Max(alpha.water) = 1
MULES: Correcting alpha.water
MULES: Correcting alpha.water
Phase-1 volume fraction = 0.124752  Min(alpha.water) = -0.000710773  Max(alpha.water) = 1.00024
DICPCG:  Solving for p_rgh, Initial residual = 0.0373674, Final residual = 0.00135959, No Iterations 3
time step continuity errors : sum local = 0.000608592, global = 1.88936e-06, cumulative = 7.6961e-05
DICPCG:  Solving for p_rgh, Initial residual = 0.0019448, Final residual = 8.57346e-05, No Iterations 18
time step continuity errors : sum local = 3.79717e-05, global = -4.99623e-07, cumulative = 7.64614e-05
DICPCG:  Solving for p_rgh, Initial residual = 0.000687, Final residual = 9.28129e-08, No Iterations 129
time step continuity errors : sum local = 4.09605e-08, global = 4.94413e-10, cumulative = 7.64619e-05
smoothSolver:  Solving for epsilon, Initial residual = 0.0121202, Final residual = 5.29759e-07, No Iterations 9
smoothSolver:  Solving for k, Initial residual = 0.00903111, Final residual = 9.00223e-07, No Iterations 10
ExecutionTime = 13.19 s  ClockTime = 43 s

Courant Number mean: 0.359403 max: 0.880622
Interface Courant Number mean: 0.0267708 max: 0.817187
deltaT = 0.00286596
Time = 0.397134

smoothSolver:  Solving for alpha.water, Initial residual = 0.00974227, Final residual = 4.35426e-09, No Iterations 3
Phase-1 volume fraction = 0.124752  Min(alpha.water) = -0.000199085  Max(alpha.water) = 1
MULES: Correcting alpha.water
MULES: Correcting alpha.water
Phase-1 volume fraction = 0.124752  Min(alpha.water) = -0.000219431  Max(alpha.water) = 1.00054
DICPCG:  Solving for p_rgh, Initial residual = 0.0406298, Final residual = 0.00140693, No Iterations 3
time step continuity errors : sum local = 0.000637541, global = 1.98008e-06, cumulative = 7.8442e-05
DICPCG:  Solving for p_rgh, Initial residual = 0.00204023, Final residual = 0.000100221, No Iterations 18
time step continuity errors : sum local = 4.47351e-05, global = -1.13761e-07, cumulative = 7.83282e-05
DICPCG:  Solving for p_rgh, Initial residual = 0.000741219, Final residual = 8.03903e-08, No Iterations 130
time step continuity errors : sum local = 3.57557e-08, global = 6.70025e-10, cumulative = 7.83289e-05
smoothSolver:  Solving for epsilon, Initial residual = 0.0121317, Final residual = 5.35003e-07, No Iterations 9
smoothSolver:  Solving for k, Initial residual = 0.00904186, Final residual = 8.95654e-07, No Iterations 10
ExecutionTime = 13.26 s  ClockTime = 44 s

Courant Number mean: 0.361857 max: 0.869295
Interface Courant Number mean: 0.0265096 max: 0.805565
deltaT = 0.00286596
Time = 0.4

smoothSolver:  Solving for alpha.water, Initial residual = 0.00970208, Final residual = 4.02599e-09, No Iterations 3
Phase-1 volume fraction = 0.124752  Min(alpha.water) = -0.000160568  Max(alpha.water) = 1
MULES: Correcting alpha.water
MULES: Correcting alpha.water
Phase-1 volume fraction = 0.124752  Min(alpha.water) = -0.000270609  Max(alpha.water) = 1.00049
DICPCG:  Solving for p_rgh, Initial residual = 0.0434728, Final residual = 0.00160613, No Iterations 3
time step continuity errors : sum local = 0.000721919, global = 1.72873e-06, cumulative = 8.00576e-05
DICPCG:  Solving for p_rgh, Initial residual = 0.00228723, Final residual = 0.00010941, No Iterations 18
time step continuity errors : sum local = 4.84295e-05, global = -1.72453e-07, cumulative = 7.98852e-05
DICPCG:  Solving for p_rgh, Initial residual = 0.000818719, Final residual = 8.38998e-08, No Iterations 130
time step continuity errors : sum local = 3.7002e-08, global = 6.94282e-10, cumulative = 7.98859e-05
smoothSolver:  Solving for epsilon, Initial residual = 0.0121943, Final residual = 5.3978e-07, No Iterations 9
smoothSolver:  Solving for k, Initial residual = 0.00905684, Final residual = 8.90221e-07, No Iterations 10
ExecutionTime = 13.35 s  ClockTime = 44 s

End

Finalising parallel run
