/*---------------------------------------------------------------------------*\
  =========                 |
  \\      /  F ield         | OpenFOAM: The Open Source CFD Toolbox
   \\    /   O peration     | Website:  https://openfoam.org
    \\  /    A nd           | Version:  9
     \\/     M anipulation  |
\*---------------------------------------------------------------------------*/
Build  : 9-a0f1846504f2
Exec   : icoFoam
Date   : Nov 16 2021
Time   : 13:38:39
Host   : "tw-Satellite-C45t-A"
PID    : 6131
I/O    : uncollated
Case   : /home/tw/OpenFOAM/tw-9/run/curso-cfd/02-elbow
nProcs : 1
sigFpe : Enabling floating point exception trapping (FOAM_SIGFPE).
fileModificationChecking : Monitoring run-time modified files using timeStampMaster (fileModificationSkew 10)
allowSystemOperations : Allowing user-supplied system call operations

// * * * * * * * * * * * * * * * * * * * * * * * * * * * * * * * * * * * * * //
Create time

Create mesh for time = 0

Reading transportProperties

Reading field p

Reading field U

Reading/calculating face flux field phi


Starting time loop

Time = 0.05

Courant Number mean: 0.000415941 max: 0.173205
smoothSolver:  Solving for Ux, Initial residual = 1, Final residual = 2.59879e-07, No Iterations 1
smoothSolver:  Solving for Uy, Initial residual = 1, Final residual = 2.7558e-06, No Iterations 1
DICPCG:  Solving for p, Initial residual = 1, Final residual = 0.0361585, No Iterations 62
DICPCG:  Solving for p, Initial residual = 0.096478, Final residual = 0.00388288, No Iterations 3
DICPCG:  Solving for p, Initial residual = 0.0094766, Final residual = 0.000467567, No Iterations 44
time step continuity errors : sum local = 7.42189e-05, global = 1.62175e-06, cumulative = 1.62175e-06
DICPCG:  Solving for p, Initial residual = 0.00302857, Final residual = 0.000137611, No Iterations 9
DICPCG:  Solving for p, Initial residual = 0.00040048, Final residual = 1.89237e-05, No Iterations 11
DICPCG:  Solving for p, Initial residual = 7.55463e-05, Final residual = 7.72624e-07, No Iterations 55
time step continuity errors : sum local = 1.18378e-07, global = 2.98182e-09, cumulative = 1.62473e-06
ExecutionTime = 0.02 s  ClockTime = 1 s

Time = 0.1

Courant Number mean: 0.0788444 max: 0.397028
smoothSolver:  Solving for Ux, Initial residual = 0.41777, Final residual = 1.43339e-06, No Iterations 2
smoothSolver:  Solving for Uy, Initial residual = 0.415998, Final residual = 7.16337e-06, No Iterations 2
DICPCG:  Solving for p, Initial residual = 0.0174141, Final residual = 0.000701293, No Iterations 60
DICPCG:  Solving for p, Initial residual = 0.503317, Final residual = 0.0203317, No Iterations 3
DICPCG:  Solving for p, Initial residual = 0.0837583, Final residual = 0.00367982, No Iterations 45
time step continuity errors : sum local = 6.59526e-05, global = -1.04384e-06, cumulative = 5.8089e-07
DICPCG:  Solving for p, Initial residual = 0.104572, Final residual = 0.00332572, No Iterations 58
DICPCG:  Solving for p, Initial residual = 0.25766, Final residual = 0.0119275, No Iterations 6
DICPCG:  Solving for p, Initial residual = 0.0349449, Final residual = 6.73391e-07, No Iterations 73
time step continuity errors : sum local = 1.97587e-09, global = -3.10011e-11, cumulative = 5.80859e-07
ExecutionTime = 0.03 s  ClockTime = 1 s

Time = 0.15

Courant Number mean: 0.0788382 max: 0.393653
smoothSolver:  Solving for Ux, Initial residual = 0.0202978, Final residual = 5.57237e-07, No Iterations 2
smoothSolver:  Solving for Uy, Initial residual = 0.0103336, Final residual = 2.44268e-07, No Iterations 2
DICPCG:  Solving for p, Initial residual = 0.266833, Final residual = 0.0126509, No Iterations 3
DICPCG:  Solving for p, Initial residual = 0.0469206, Final residual = 0.00220428, No Iterations 41
DICPCG:  Solving for p, Initial residual = 0.0173874, Final residual = 0.000648257, No Iterations 9
time step continuity errors : sum local = 1.19086e-06, global = 1.68985e-08, cumulative = 5.97758e-07
DICPCG:  Solving for p, Initial residual = 0.0143188, Final residual = 0.000713933, No Iterations 12
DICPCG:  Solving for p, Initial residual = 0.00303228, Final residual = 0.000126464, No Iterations 41
DICPCG:  Solving for p, Initial residual = 0.000821878, Final residual = 7.93456e-07, No Iterations 39
time step continuity errors : sum local = 1.4675e-09, global = 2.7909e-10, cumulative = 5.98037e-07
ExecutionTime = 0.04 s  ClockTime = 1 s

Time = 0.2

Courant Number mean: 0.078847 max: 0.39399
smoothSolver:  Solving for Ux, Initial residual = 0.0146519, Final residual = 3.95631e-07, No Iterations 2
smoothSolver:  Solving for Uy, Initial residual = 0.00739534, Final residual = 1.66157e-07, No Iterations 2
DICPCG:  Solving for p, Initial residual = 0.141313, Final residual = 0.00533839, No Iterations 3
DICPCG:  Solving for p, Initial residual = 0.0176752, Final residual = 0.000779255, No Iterations 47
DICPCG:  Solving for p, Initial residual = 0.00585738, Final residual = 0.000241695, No Iterations 10
time step continuity errors : sum local = 3.51223e-07, global = -1.81939e-08, cumulative = 5.79843e-07
DICPCG:  Solving for p, Initial residual = 0.00585214, Final residual = 0.000266471, No Iterations 5
DICPCG:  Solving for p, Initial residual = 0.00119685, Final residual = 4.95573e-05, No Iterations 46
DICPCG:  Solving for p, Initial residual = 0.000376064, Final residual = 8.93257e-07, No Iterations 44
time step continuity errors : sum local = 1.29799e-09, global = 2.6497e-10, cumulative = 5.80108e-07
ExecutionTime = 0.04 s  ClockTime = 1 s

Time = 0.25

Courant Number mean: 0.0788562 max: 0.391625
smoothSolver:  Solving for Ux, Initial residual = 0.0122727, Final residual = 3.06976e-07, No Iterations 2
smoothSolver:  Solving for Uy, Initial residual = 0.00613868, Final residual = 1.38988e-07, No Iterations 2
DICPCG:  Solving for p, Initial residual = 0.106975, Final residual = 0.00463922, No Iterations 3
DICPCG:  Solving for p, Initial residual = 0.0124213, Final residual = 0.000524473, No Iterations 49
DICPCG:  Solving for p, Initial residual = 0.00421559, Final residual = 0.000182155, No Iterations 10
time step continuity errors : sum local = 2.29979e-07, global = -9.05432e-09, cumulative = 5.71054e-07
DICPCG:  Solving for p, Initial residual = 0.00412828, Final residual = 0.000185322, No Iterations 6
DICPCG:  Solving for p, Initial residual = 0.000798978, Final residual = 3.44791e-05, No Iterations 55
DICPCG:  Solving for p, Initial residual = 0.000274755, Final residual = 9.0216e-07, No Iterations 34
time step continuity errors : sum local = 1.1392e-09, global = -2.12692e-10, cumulative = 5.70841e-07
ExecutionTime = 0.05 s  ClockTime = 1 s

Time = 0.3

Courant Number mean: 0.0788652 max: 0.387526
smoothSolver:  Solving for Ux, Initial residual = 0.0106136, Final residual = 2.96365e-07, No Iterations 2
smoothSolver:  Solving for Uy, Initial residual = 0.00525661, Final residual = 1.13733e-07, No Iterations 2
DICPCG:  Solving for p, Initial residual = 0.0882958, Final residual = 0.00326384, No Iterations 4
DICPCG:  Solving for p, Initial residual = 0.0109325, Final residual = 0.000505032, No Iterations 51
DICPCG:  Solving for p, Initial residual = 0.00341574, Final residual = 0.000160282, No Iterations 8
time step continuity errors : sum local = 1.82668e-07, global = 2.24278e-09, cumulative = 5.73084e-07
DICPCG:  Solving for p, Initial residual = 0.00363133, Final residual = 0.000158096, No Iterations 6
DICPCG:  Solving for p, Initial residual = 0.000661893, Final residual = 3.30522e-05, No Iterations 25
DICPCG:  Solving for p, Initial residual = 0.000184709, Final residual = 9.53326e-07, No Iterations 59
time step continuity errors : sum local = 1.08705e-09, global = 2.53241e-11, cumulative = 5.73109e-07
ExecutionTime = 0.06 s  ClockTime = 1 s

Time = 0.35

Courant Number mean: 0.0788796 max: 0.382004
smoothSolver:  Solving for Ux, Initial residual = 0.00935663, Final residual = 2.98942e-07, No Iterations 2
smoothSolver:  Solving for Uy, Initial residual = 0.00456371, Final residual = 9.27388e-06, No Iterations 1
DICPCG:  Solving for p, Initial residual = 0.0843368, Final residual = 0.00288119, No Iterations 3
DICPCG:  Solving for p, Initial residual = 0.00962218, Final residual = 0.00045967, No Iterations 13
DICPCG:  Solving for p, Initial residual = 0.00172993, Final residual = 8.42294e-05, No Iterations 51
time step continuity errors : sum local = 8.64164e-08, global = -6.72603e-09, cumulative = 5.66383e-07
DICPCG:  Solving for p, Initial residual = 0.00438732, Final residual = 0.000155993, No Iterations 5
DICPCG:  Solving for p, Initial residual = 0.000703467, Final residual = 3.38656e-05, No Iterations 13
DICPCG:  Solving for p, Initial residual = 0.000139149, Final residual = 6.9593e-07, No Iterations 57
time step continuity errors : sum local = 7.22916e-10, global = 1.42673e-12, cumulative = 5.66384e-07
ExecutionTime = 0.07 s  ClockTime = 1 s

Time = 0.4

Courant Number mean: 0.0788984 max: 0.375618
smoothSolver:  Solving for Ux, Initial residual = 0.00836963, Final residual = 2.64257e-07, No Iterations 2
smoothSolver:  Solving for Uy, Initial residual = 0.00406034, Final residual = 8.70215e-06, No Iterations 1
DICPCG:  Solving for p, Initial residual = 0.0723447, Final residual = 0.00295053, No Iterations 3
DICPCG:  Solving for p, Initial residual = 0.0088521, Final residual = 0.000356684, No Iterations 12
DICPCG:  Solving for p, Initial residual = 0.00148621, Final residual = 5.96025e-05, No Iterations 50
time step continuity errors : sum local = 5.65322e-08, global = -2.03063e-09, cumulative = 5.64354e-07
DICPCG:  Solving for p, Initial residual = 0.00346487, Final residual = 0.000137789, No Iterations 6
DICPCG:  Solving for p, Initial residual = 0.000550989, Final residual = 2.6278e-05, No Iterations 17
DICPCG:  Solving for p, Initial residual = 8.94787e-05, Final residual = 8.0804e-07, No Iterations 59
time step continuity errors : sum local = 7.71639e-10, global = -3.45246e-12, cumulative = 5.6435e-07
ExecutionTime = 0.08 s  ClockTime = 1 s

Time = 0.45

Courant Number mean: 0.078916 max: 0.369042
smoothSolver:  Solving for Ux, Initial residual = 0.00756045, Final residual = 2.27515e-07, No Iterations 2
smoothSolver:  Solving for Uy, Initial residual = 0.00364585, Final residual = 8.1172e-06, No Iterations 1
DICPCG:  Solving for p, Initial residual = 0.0706728, Final residual = 0.00292192, No Iterations 3
DICPCG:  Solving for p, Initial residual = 0.00811303, Final residual = 0.000393186, No Iterations 9
DICPCG:  Solving for p, Initial residual = 0.00136125, Final residual = 6.66214e-05, No Iterations 54
time step continuity errors : sum local = 5.87209e-08, global = 6.93977e-10, cumulative = 5.65044e-07
DICPCG:  Solving for p, Initial residual = 0.00345579, Final residual = 0.00016382, No Iterations 5
DICPCG:  Solving for p, Initial residual = 0.000511988, Final residual = 2.52143e-05, No Iterations 18
DICPCG:  Solving for p, Initial residual = 7.91157e-05, Final residual = 6.60034e-07, No Iterations 57
time step continuity errors : sum local = 5.86395e-10, global = 6.57586e-12, cumulative = 5.65051e-07
ExecutionTime = 0.08 s  ClockTime = 1 s

Time = 0.5

Courant Number mean: 0.0789365 max: 0.3646
smoothSolver:  Solving for Ux, Initial residual = 0.00686395, Final residual = 1.70906e-07, No Iterations 2
smoothSolver:  Solving for Uy, Initial residual = 0.00329416, Final residual = 7.36068e-06, No Iterations 1
DICPCG:  Solving for p, Initial residual = 0.0606573, Final residual = 0.00194139, No Iterations 3
DICPCG:  Solving for p, Initial residual = 0.00660194, Final residual = 0.000261559, No Iterations 9
DICPCG:  Solving for p, Initial residual = 0.00101367, Final residual = 5.01192e-05, No Iterations 22
time step continuity errors : sum local = 4.11325e-08, global = -1.04588e-09, cumulative = 5.64005e-07
DICPCG:  Solving for p, Initial residual = 0.00266856, Final residual = 0.000116927, No Iterations 4
DICPCG:  Solving for p, Initial residual = 0.000439191, Final residual = 1.77155e-05, No Iterations 39
DICPCG:  Solving for p, Initial residual = 0.000134195, Final residual = 9.04499e-07, No Iterations 27
time step continuity errors : sum local = 7.43736e-10, global = 1.16481e-11, cumulative = 5.64017e-07
ExecutionTime = 0.09 s  ClockTime = 1 s

Time = 0.55

Courant Number mean: 0.0789558 max: 0.366778
smoothSolver:  Solving for Ux, Initial residual = 0.00631515, Final residual = 1.50574e-07, No Iterations 2
smoothSolver:  Solving for Uy, Initial residual = 0.0029836, Final residual = 6.66151e-06, No Iterations 1
DICPCG:  Solving for p, Initial residual = 0.0535249, Final residual = 0.00170657, No Iterations 3
DICPCG:  Solving for p, Initial residual = 0.00580385, Final residual = 0.000245029, No Iterations 15
DICPCG:  Solving for p, Initial residual = 0.000975058, Final residual = 4.6544e-05, No Iterations 24
time step continuity errors : sum local = 3.59652e-08, global = 6.77778e-09, cumulative = 5.70794e-07
DICPCG:  Solving for p, Initial residual = 0.00203845, Final residual = 8.88272e-05, No Iterations 5
DICPCG:  Solving for p, Initial residual = 0.000377625, Final residual = 1.66937e-05, No Iterations 53
DICPCG:  Solving for p, Initial residual = 0.000136578, Final residual = 9.47662e-07, No Iterations 31
time step continuity errors : sum local = 7.31561e-10, global = -1.22594e-10, cumulative = 5.70672e-07
ExecutionTime = 0.1 s  ClockTime = 1 s

Time = 0.6

Courant Number mean: 0.0789735 max: 0.368495
smoothSolver:  Solving for Ux, Initial residual = 0.00582983, Final residual = 1.46911e-07, No Iterations 2
smoothSolver:  Solving for Uy, Initial residual = 0.00272657, Final residual = 6.41493e-06, No Iterations 1
DICPCG:  Solving for p, Initial residual = 0.0509916, Final residual = 0.00159261, No Iterations 3
DICPCG:  Solving for p, Initial residual = 0.00546, Final residual = 0.000269197, No Iterations 13
DICPCG:  Solving for p, Initial residual = 0.000977062, Final residual = 4.71349e-05, No Iterations 52
time step continuity errors : sum local = 3.42674e-08, global = -1.14756e-09, cumulative = 5.69524e-07
DICPCG:  Solving for p, Initial residual = 0.00205862, Final residual = 8.58601e-05, No Iterations 5
DICPCG:  Solving for p, Initial residual = 0.000345011, Final residual = 1.67485e-05, No Iterations 21
DICPCG:  Solving for p, Initial residual = 6.42639e-05, Final residual = 9.24885e-07, No Iterations 53
time step continuity errors : sum local = 6.7059e-10, global = -1.97419e-11, cumulative = 5.69504e-07
ExecutionTime = 0.11 s  ClockTime = 1 s

Time = 0.65

Courant Number mean: 0.0789906 max: 0.369872
smoothSolver:  Solving for Ux, Initial residual = 0.00539042, Final residual = 1.33443e-07, No Iterations 2
smoothSolver:  Solving for Uy, Initial residual = 0.00248653, Final residual = 6.12477e-06, No Iterations 1
DICPCG:  Solving for p, Initial residual = 0.0506234, Final residual = 0.00161904, No Iterations 3
DICPCG:  Solving for p, Initial residual = 0.0055148, Final residual = 0.000239634, No Iterations 24
DICPCG:  Solving for p, Initial residual = 0.00135136, Final residual = 6.30722e-05, No Iterations 49
time step continuity errors : sum local = 4.33213e-08, global = 1.79714e-09, cumulative = 5.71302e-07
DICPCG:  Solving for p, Initial residual = 0.00219868, Final residual = 8.85924e-05, No Iterations 7
DICPCG:  Solving for p, Initial residual = 0.000366248, Final residual = 1.74132e-05, No Iterations 26
DICPCG:  Solving for p, Initial residual = 0.000109933, Final residual = 8.60129e-07, No Iterations 58
time step continuity errors : sum local = 5.88859e-10, global = -2.75721e-12, cumulative = 5.71299e-07
ExecutionTime = 0.11 s  ClockTime = 1 s

Time = 0.7

Courant Number mean: 0.0790086 max: 0.37105
smoothSolver:  Solving for Ux, Initial residual = 0.00501915, Final residual = 1.23114e-07, No Iterations 2
smoothSolver:  Solving for Uy, Initial residual = 0.00228436, Final residual = 5.74744e-06, No Iterations 1
DICPCG:  Solving for p, Initial residual = 0.0488015, Final residual = 0.00197338, No Iterations 3
DICPCG:  Solving for p, Initial residual = 0.00622969, Final residual = 0.000280754, No Iterations 25
DICPCG:  Solving for p, Initial residual = 0.00139315, Final residual = 6.32401e-05, No Iterations 38
time step continuity errors : sum local = 4.11614e-08, global = -1.76957e-09, cumulative = 5.69529e-07
DICPCG:  Solving for p, Initial residual = 0.00209303, Final residual = 8.48795e-05, No Iterations 6
DICPCG:  Solving for p, Initial residual = 0.000340625, Final residual = 1.51986e-05, No Iterations 27
DICPCG:  Solving for p, Initial residual = 0.000128738, Final residual = 9.56738e-07, No Iterations 58
time step continuity errors : sum local = 6.19727e-10, global = 1.10225e-11, cumulative = 5.6954e-07
ExecutionTime = 0.12 s  ClockTime = 1 s

Time = 0.75

Courant Number mean: 0.0790258 max: 0.372126
smoothSolver:  Solving for Ux, Initial residual = 0.00469984, Final residual = 1.50501e-07, No Iterations 2
smoothSolver:  Solving for Uy, Initial residual = 0.00213239, Final residual = 5.26931e-06, No Iterations 1
DICPCG:  Solving for p, Initial residual = 0.0450944, Final residual = 0.00194489, No Iterations 3
DICPCG:  Solving for p, Initial residual = 0.00561695, Final residual = 0.00024099, No Iterations 24
DICPCG:  Solving for p, Initial residual = 0.0014611, Final residual = 6.07485e-05, No Iterations 48
time step continuity errors : sum local = 3.77016e-08, global = 1.63235e-09, cumulative = 5.71173e-07
DICPCG:  Solving for p, Initial residual = 0.00212191, Final residual = 8.55359e-05, No Iterations 5
DICPCG:  Solving for p, Initial residual = 0.000341971, Final residual = 1.52128e-05, No Iterations 27
DICPCG:  Solving for p, Initial residual = 9.58234e-05, Final residual = 9.25131e-07, No Iterations 58
time step continuity errors : sum local = 5.71545e-10, global = 2.72647e-12, cumulative = 5.71175e-07
ExecutionTime = 0.13 s  ClockTime = 1 s

Time = 0.8

Courant Number mean: 0.0790418 max: 0.37337
smoothSolver:  Solving for Ux, Initial residual = 0.00441727, Final residual = 1.50266e-07, No Iterations 2
smoothSolver:  Solving for Uy, Initial residual = 0.00200819, Final residual = 4.98931e-06, No Iterations 1
DICPCG:  Solving for p, Initial residual = 0.0418975, Final residual = 0.00140091, No Iterations 3
DICPCG:  Solving for p, Initial residual = 0.0049835, Final residual = 0.000213374, No Iterations 17
DICPCG:  Solving for p, Initial residual = 0.00101909, Final residual = 4.31058e-05, No Iterations 47
time step continuity errors : sum local = 2.54909e-08, global = 6.51586e-10, cumulative = 5.71827e-07
DICPCG:  Solving for p, Initial residual = 0.00192319, Final residual = 8.58514e-05, No Iterations 4
DICPCG:  Solving for p, Initial residual = 0.00026979, Final residual = 1.06609e-05, No Iterations 56
DICPCG:  Solving for p, Initial residual = 0.000102337, Final residual = 9.1227e-07, No Iterations 24
time step continuity errors : sum local = 5.3696e-10, global = 8.67757e-11, cumulative = 5.71914e-07
ExecutionTime = 0.14 s  ClockTime = 1 s

Time = 0.85

Courant Number mean: 0.0790566 max: 0.374557
smoothSolver:  Solving for Ux, Initial residual = 0.00415232, Final residual = 1.4843e-07, No Iterations 2
smoothSolver:  Solving for Uy, Initial residual = 0.00188667, Final residual = 4.61446e-06, No Iterations 1
DICPCG:  Solving for p, Initial residual = 0.0403668, Final residual = 0.00138461, No Iterations 3
DICPCG:  Solving for p, Initial residual = 0.00474579, Final residual = 0.000206269, No Iterations 17
DICPCG:  Solving for p, Initial residual = 0.000930424, Final residual = 4.25768e-05, No Iterations 48
time step continuity errors : sum local = 2.40468e-08, global = 1.85306e-09, cumulative = 5.73767e-07
DICPCG:  Solving for p, Initial residual = 0.00201253, Final residual = 9.82995e-05, No Iterations 3
DICPCG:  Solving for p, Initial residual = 0.000292184, Final residual = 1.3488e-05, No Iterations 25
DICPCG:  Solving for p, Initial residual = 9.11052e-05, Final residual = 8.4837e-07, No Iterations 50
time step continuity errors : sum local = 4.77314e-10, global = -1.11344e-11, cumulative = 5.73756e-07
ExecutionTime = 0.15 s  ClockTime = 1 s

Time = 0.9

Courant Number mean: 0.0790703 max: 0.375698
smoothSolver:  Solving for Ux, Initial residual = 0.00391784, Final residual = 1.50562e-07, No Iterations 2
smoothSolver:  Solving for Uy, Initial residual = 0.00178013, Final residual = 4.43774e-06, No Iterations 1
DICPCG:  Solving for p, Initial residual = 0.0405943, Final residual = 0.00136029, No Iterations 3
DICPCG:  Solving for p, Initial residual = 0.00503015, Final residual = 0.000248253, No Iterations 16
DICPCG:  Solving for p, Initial residual = 0.000929104, Final residual = 3.31558e-05, No Iterations 47
time step continuity errors : sum local = 1.78824e-08, global = -7.82861e-10, cumulative = 5.72973e-07
DICPCG:  Solving for p, Initial residual = 0.00188124, Final residual = 8.29087e-05, No Iterations 3
DICPCG:  Solving for p, Initial residual = 0.000253615, Final residual = 1.06282e-05, No Iterations 51
DICPCG:  Solving for p, Initial residual = 7.35851e-05, Final residual = 8.69461e-07, No Iterations 22
time step continuity errors : sum local = 4.66819e-10, global = 2.92224e-11, cumulative = 5.73002e-07
ExecutionTime = 0.15 s  ClockTime = 1 s

Time = 0.95

Courant Number mean: 0.0790835 max: 0.37681
smoothSolver:  Solving for Ux, Initial residual = 0.0036999, Final residual = 1.54525e-07, No Iterations 2
smoothSolver:  Solving for Uy, Initial residual = 0.00168156, Final residual = 4.2562e-06, No Iterations 1
DICPCG:  Solving for p, Initial residual = 0.0387083, Final residual = 0.00117234, No Iterations 3
DICPCG:  Solving for p, Initial residual = 0.00470253, Final residual = 0.000201373, No Iterations 9
DICPCG:  Solving for p, Initial residual = 0.000823484, Final residual = 4.04594e-05, No Iterations 38
time step continuity errors : sum local = 2.09009e-08, global = 2.1106e-09, cumulative = 5.75113e-07
DICPCG:  Solving for p, Initial residual = 0.00188007, Final residual = 8.26152e-05, No Iterations 4
DICPCG:  Solving for p, Initial residual = 0.000237888, Final residual = 1.15737e-05, No Iterations 24
DICPCG:  Solving for p, Initial residual = 6.12086e-05, Final residual = 8.87801e-07, No Iterations 55
time step continuity errors : sum local = 4.56672e-10, global = 1.58121e-11, cumulative = 5.75128e-07
ExecutionTime = 0.16 s  ClockTime = 1 s

Time = 1

Courant Number mean: 0.0790963 max: 0.377885
smoothSolver:  Solving for Ux, Initial residual = 0.00350761, Final residual = 9.98697e-06, No Iterations 1
smoothSolver:  Solving for Uy, Initial residual = 0.00160257, Final residual = 4.11689e-06, No Iterations 1
DICPCG:  Solving for p, Initial residual = 0.0360948, Final residual = 0.00108825, No Iterations 3
DICPCG:  Solving for p, Initial residual = 0.0041492, Final residual = 0.000193042, No Iterations 9
DICPCG:  Solving for p, Initial residual = 0.000668942, Final residual = 3.32555e-05, No Iterations 53
time step continuity errors : sum local = 1.65136e-08, global = -1.17521e-11, cumulative = 5.75117e-07
DICPCG:  Solving for p, Initial residual = 0.00178292, Final residual = 7.6743e-05, No Iterations 3
DICPCG:  Solving for p, Initial residual = 0.000241751, Final residual = 1.18183e-05, No Iterations 42
DICPCG:  Solving for p, Initial residual = 6.50382e-05, Final residual = 7.41883e-07, No Iterations 32
time step continuity errors : sum local = 3.66836e-10, global = -5.45148e-11, cumulative = 5.75062e-07
ExecutionTime = 0.18 s  ClockTime = 1 s

Time = 1.05

Courant Number mean: 0.0791079 max: 0.378909
smoothSolver:  Solving for Ux, Initial residual = 0.00334043, Final residual = 9.61014e-06, No Iterations 1
smoothSolver:  Solving for Uy, Initial residual = 0.0015355, Final residual = 3.9821e-06, No Iterations 1
DICPCG:  Solving for p, Initial residual = 0.0341912, Final residual = 0.00131418, No Iterations 3
DICPCG:  Solving for p, Initial residual = 0.00420688, Final residual = 0.000201261, No Iterations 7
DICPCG:  Solving for p, Initial residual = 0.000684075, Final residual = 3.37855e-05, No Iterations 40
time step continuity errors : sum local = 1.62763e-08, global = 1.15033e-09, cumulative = 5.76212e-07
DICPCG:  Solving for p, Initial residual = 0.0016735, Final residual = 6.47342e-05, No Iterations 4
DICPCG:  Solving for p, Initial residual = 0.000238417, Final residual = 1.07813e-05, No Iterations 23
DICPCG:  Solving for p, Initial residual = 5.89439e-05, Final residual = 7.97902e-07, No Iterations 57
time step continuity errors : sum local = 3.82626e-10, global = 2.78869e-12, cumulative = 5.76215e-07
ExecutionTime = 0.18 s  ClockTime = 1 s

Time = 1.1

Courant Number mean: 0.0791186 max: 0.379879
smoothSolver:  Solving for Ux, Initial residual = 0.00319366, Final residual = 9.08277e-06, No Iterations 1
smoothSolver:  Solving for Uy, Initial residual = 0.0014697, Final residual = 3.74189e-06, No Iterations 1
DICPCG:  Solving for p, Initial residual = 0.0337969, Final residual = 0.00112572, No Iterations 3
DICPCG:  Solving for p, Initial residual = 0.00405621, Final residual = 0.000188073, No Iterations 10
DICPCG:  Solving for p, Initial residual = 0.000659096, Final residual = 2.68311e-05, No Iterations 49
time step continuity errors : sum local = 1.24722e-08, global = 1.05469e-10, cumulative = 5.76321e-07
DICPCG:  Solving for p, Initial residual = 0.00168888, Final residual = 7.15982e-05, No Iterations 4
DICPCG:  Solving for p, Initial residual = 0.000237083, Final residual = 1.02971e-05, No Iterations 53
DICPCG:  Solving for p, Initial residual = 7.29578e-05, Final residual = 8.22994e-07, No Iterations 26
time step continuity errors : sum local = 3.8066e-10, global = 2.57666e-11, cumulative = 5.76347e-07
ExecutionTime = 0.19 s  ClockTime = 1 s

Time = 1.15

Courant Number mean: 0.0791294 max: 0.380782
smoothSolver:  Solving for Ux, Initial residual = 0.00306376, Final residual = 8.55583e-06, No Iterations 1
smoothSolver:  Solving for Uy, Initial residual = 0.00141508, Final residual = 3.60724e-06, No Iterations 1
DICPCG:  Solving for p, Initial residual = 0.0340496, Final residual = 0.00110803, No Iterations 3
DICPCG:  Solving for p, Initial residual = 0.00417498, Final residual = 0.000192214, No Iterations 10
DICPCG:  Solving for p, Initial residual = 0.000664698, Final residual = 3.23276e-05, No Iterations 43
time step continuity errors : sum local = 1.45171e-08, global = -2.81707e-10, cumulative = 5.76065e-07
DICPCG:  Solving for p, Initial residual = 0.00166724, Final residual = 6.29828e-05, No Iterations 4
DICPCG:  Solving for p, Initial residual = 0.000229438, Final residual = 1.10259e-05, No Iterations 13
DICPCG:  Solving for p, Initial residual = 4.53093e-05, Final residual = 9.94983e-07, No Iterations 54
time step continuity errors : sum local = 4.4415e-10, global = 7.04979e-12, cumulative = 5.76072e-07
ExecutionTime = 0.2 s  ClockTime = 1 s

Time = 1.2

Courant Number mean: 0.0791407 max: 0.381642
smoothSolver:  Solving for Ux, Initial residual = 0.00294276, Final residual = 8.14809e-06, No Iterations 1
smoothSolver:  Solving for Uy, Initial residual = 0.00137244, Final residual = 3.55602e-06, No Iterations 1
DICPCG:  Solving for p, Initial residual = 0.0350316, Final residual = 0.00139351, No Iterations 3
DICPCG:  Solving for p, Initial residual = 0.00440402, Final residual = 0.000200505, No Iterations 11
DICPCG:  Solving for p, Initial residual = 0.000882606, Final residual = 3.99276e-05, No Iterations 53
time step continuity errors : sum local = 1.72539e-08, global = -8.63807e-11, cumulative = 5.75985e-07
DICPCG:  Solving for p, Initial residual = 0.00159249, Final residual = 7.47542e-05, No Iterations 3
DICPCG:  Solving for p, Initial residual = 0.000227788, Final residual = 1.13747e-05, No Iterations 16
DICPCG:  Solving for p, Initial residual = 4.47362e-05, Final residual = 9.68509e-07, No Iterations 48
time step continuity errors : sum local = 4.17152e-10, global = -1.15102e-11, cumulative = 5.75974e-07
ExecutionTime = 0.21 s  ClockTime = 1 s

Time = 1.25

Courant Number mean: 0.0791518 max: 0.382524
smoothSolver:  Solving for Ux, Initial residual = 0.00283335, Final residual = 7.76237e-06, No Iterations 1
smoothSolver:  Solving for Uy, Initial residual = 0.00132514, Final residual = 3.39715e-06, No Iterations 1
DICPCG:  Solving for p, Initial residual = 0.0333866, Final residual = 0.00165508, No Iterations 3
DICPCG:  Solving for p, Initial residual = 0.00464089, Final residual = 0.000201068, No Iterations 26
DICPCG:  Solving for p, Initial residual = 0.0011077, Final residual = 5.04604e-05, No Iterations 39
time step continuity errors : sum local = 2.11661e-08, global = 1.23492e-09, cumulative = 5.77209e-07
DICPCG:  Solving for p, Initial residual = 0.00150724, Final residual = 6.82211e-05, No Iterations 3
DICPCG:  Solving for p, Initial residual = 0.000236301, Final residual = 8.8394e-06, No Iterations 27
DICPCG:  Solving for p, Initial residual = 4.8896e-05, Final residual = 9.55409e-07, No Iterations 50
time step continuity errors : sum local = 3.99545e-10, global = 5.80522e-12, cumulative = 5.77215e-07
ExecutionTime = 0.21 s  ClockTime = 1 s

Time = 1.3

Courant Number mean: 0.0791633 max: 0.383405
smoothSolver:  Solving for Ux, Initial residual = 0.00273934, Final residual = 7.30723e-06, No Iterations 1
smoothSolver:  Solving for Uy, Initial residual = 0.00129176, Final residual = 3.31795e-06, No Iterations 1
DICPCG:  Solving for p, Initial residual = 0.0306492, Final residual = 0.00121095, No Iterations 3
DICPCG:  Solving for p, Initial residual = 0.00378031, Final residual = 0.000162221, No Iterations 10
DICPCG:  Solving for p, Initial residual = 0.000711039, Final residual = 2.83341e-05, No Iterations 45
time step continuity errors : sum local = 1.15821e-08, global = -3.99396e-10, cumulative = 5.76815e-07
DICPCG:  Solving for p, Initial residual = 0.00144387, Final residual = 6.61494e-05, No Iterations 4
DICPCG:  Solving for p, Initial residual = 0.000249663, Final residual = 1.03312e-05, No Iterations 45
DICPCG:  Solving for p, Initial residual = 7.15507e-05, Final residual = 9.05447e-07, No Iterations 26
time step continuity errors : sum local = 3.68389e-10, global = -5.39109e-11, cumulative = 5.76761e-07
ExecutionTime = 0.22 s  ClockTime = 1 s

Time = 1.35

Courant Number mean: 0.0791765 max: 0.384247
smoothSolver:  Solving for Ux, Initial residual = 0.00264573, Final residual = 6.69794e-06, No Iterations 1
smoothSolver:  Solving for Uy, Initial residual = 0.00125426, Final residual = 3.30123e-06, No Iterations 1
DICPCG:  Solving for p, Initial residual = 0.0331785, Final residual = 0.00112545, No Iterations 5
DICPCG:  Solving for p, Initial residual = 0.00403629, Final residual = 0.000184883, No Iterations 25
DICPCG:  Solving for p, Initial residual = 0.000888011, Final residual = 4.30251e-05, No Iterations 37
time step continuity errors : sum local = 1.7066e-08, global = -3.66281e-11, cumulative = 5.76725e-07
DICPCG:  Solving for p, Initial residual = 0.0016074, Final residual = 7.98789e-05, No Iterations 4
DICPCG:  Solving for p, Initial residual = 0.000280404, Final residual = 1.37001e-05, No Iterations 20
DICPCG:  Solving for p, Initial residual = 5.96341e-05, Final residual = 9.92719e-07, No Iterations 56
time step continuity errors : sum local = 3.91881e-10, global = -6.65768e-12, cumulative = 5.76718e-07
ExecutionTime = 0.23 s  ClockTime = 1 s

Time = 1.4

Courant Number mean: 0.0791886 max: 0.38511
smoothSolver:  Solving for Ux, Initial residual = 0.00256048, Final residual = 6.3382e-06, No Iterations 1
smoothSolver:  Solving for Uy, Initial residual = 0.00121984, Final residual = 3.1879e-06, No Iterations 1
DICPCG:  Solving for p, Initial residual = 0.0331392, Final residual = 0.00149574, No Iterations 3
DICPCG:  Solving for p, Initial residual = 0.00422307, Final residual = 0.000188484, No Iterations 11
DICPCG:  Solving for p, Initial residual = 0.000746377, Final residual = 3.12135e-05, No Iterations 45
time step continuity errors : sum local = 1.21257e-08, global = 5.83021e-10, cumulative = 5.77301e-07
DICPCG:  Solving for p, Initial residual = 0.00161699, Final residual = 7.88628e-05, No Iterations 4
DICPCG:  Solving for p, Initial residual = 0.000284118, Final residual = 1.03777e-05, No Iterations 45
DICPCG:  Solving for p, Initial residual = 7.77694e-05, Final residual = 9.89408e-07, No Iterations 54
time step continuity errors : sum local = 3.82658e-10, global = -2.25926e-12, cumulative = 5.77299e-07
ExecutionTime = 0.24 s  ClockTime = 1 s

Time = 1.45

Courant Number mean: 0.0792004 max: 0.38592
smoothSolver:  Solving for Ux, Initial residual = 0.00250442, Final residual = 6.20627e-06, No Iterations 1
smoothSolver:  Solving for Uy, Initial residual = 0.00118723, Final residual = 3.05022e-06, No Iterations 1
DICPCG:  Solving for p, Initial residual = 0.0380608, Final residual = 0.00168959, No Iterations 4
DICPCG:  Solving for p, Initial residual = 0.00481761, Final residual = 0.000233805, No Iterations 21
DICPCG:  Solving for p, Initial residual = 0.00101561, Final residual = 3.7124e-05, No Iterations 54
time step continuity errors : sum local = 1.4292e-08, global = 5.53329e-11, cumulative = 5.77354e-07
DICPCG:  Solving for p, Initial residual = 0.00168061, Final residual = 5.78771e-05, No Iterations 5
DICPCG:  Solving for p, Initial residual = 0.000269236, Final residual = 1.26884e-05, No Iterations 19
DICPCG:  Solving for p, Initial residual = 5.66178e-05, Final residual = 9.52593e-07, No Iterations 48
time step continuity errors : sum local = 3.65071e-10, global = 1.24323e-11, cumulative = 5.77367e-07
ExecutionTime = 0.25 s  ClockTime = 1 s

Time = 1.5

Courant Number mean: 0.079212 max: 0.386663
smoothSolver:  Solving for Ux, Initial residual = 0.00242913, Final residual = 5.97966e-06, No Iterations 1
smoothSolver:  Solving for Uy, Initial residual = 0.00115338, Final residual = 2.93615e-06, No Iterations 1
DICPCG:  Solving for p, Initial residual = 0.0319731, Final residual = 0.00158174, No Iterations 5
DICPCG:  Solving for p, Initial residual = 0.00443622, Final residual = 0.000218879, No Iterations 54
DICPCG:  Solving for p, Initial residual = 0.0014255, Final residual = 6.34004e-05, No Iterations 7
time step continuity errors : sum local = 2.346e-08, global = 3.55607e-10, cumulative = 5.77722e-07
DICPCG:  Solving for p, Initial residual = 0.00126636, Final residual = 6.257e-05, No Iterations 11
DICPCG:  Solving for p, Initial residual = 0.000244986, Final residual = 1.19845e-05, No Iterations 18
DICPCG:  Solving for p, Initial residual = 5.89822e-05, Final residual = 6.85023e-07, No Iterations 55
time step continuity errors : sum local = 2.53466e-10, global = -4.81526e-13, cumulative = 5.77722e-07
ExecutionTime = 0.25 s  ClockTime = 1 s

Time = 1.55

Courant Number mean: 0.0792291 max: 0.387339
smoothSolver:  Solving for Ux, Initial residual = 0.00236154, Final residual = 5.91474e-06, No Iterations 1
smoothSolver:  Solving for Uy, Initial residual = 0.00113842, Final residual = 2.96528e-06, No Iterations 1
DICPCG:  Solving for p, Initial residual = 0.0328988, Final residual = 0.00157432, No Iterations 4
DICPCG:  Solving for p, Initial residual = 0.00468543, Final residual = 0.00019132, No Iterations 26
DICPCG:  Solving for p, Initial residual = 0.00102625, Final residual = 4.81431e-05, No Iterations 35
time step continuity errors : sum local = 1.73764e-08, global = -1.01398e-09, cumulative = 5.76708e-07
DICPCG:  Solving for p, Initial residual = 0.00145408, Final residual = 6.72818e-05, No Iterations 7
DICPCG:  Solving for p, Initial residual = 0.000236844, Final residual = 1.15858e-05, No Iterations 19
DICPCG:  Solving for p, Initial residual = 5.82367e-05, Final residual = 8.29825e-07, No Iterations 57
time step continuity errors : sum local = 2.97937e-10, global = 8.62597e-13, cumulative = 5.76709e-07
ExecutionTime = 0.26 s  ClockTime = 1 s

Time = 1.6

Courant Number mean: 0.0792474 max: 0.388021
smoothSolver:  Solving for Ux, Initial residual = 0.0023067, Final residual = 5.71296e-06, No Iterations 1
smoothSolver:  Solving for Uy, Initial residual = 0.00112386, Final residual = 2.93901e-06, No Iterations 1
DICPCG:  Solving for p, Initial residual = 0.0281388, Final residual = 0.00134175, No Iterations 4
DICPCG:  Solving for p, Initial residual = 0.0035832, Final residual = 0.000172914, No Iterations 26
DICPCG:  Solving for p, Initial residual = 0.000790276, Final residual = 3.71177e-05, No Iterations 44
time step continuity errors : sum local = 1.3079e-08, global = -1.31329e-10, cumulative = 5.76577e-07
DICPCG:  Solving for p, Initial residual = 0.0012785, Final residual = 4.89781e-05, No Iterations 12
DICPCG:  Solving for p, Initial residual = 0.000234901, Final residual = 1.00004e-05, No Iterations 18
DICPCG:  Solving for p, Initial residual = 4.77215e-05, Final residual = 9.58732e-07, No Iterations 53
time step continuity errors : sum local = 3.36408e-10, global = 8.11428e-12, cumulative = 5.76585e-07
ExecutionTime = 0.27 s  ClockTime = 1 s

Time = 1.65

Courant Number mean: 0.0792654 max: 0.388645
smoothSolver:  Solving for Ux, Initial residual = 0.00225424, Final residual = 5.48382e-06, No Iterations 1
smoothSolver:  Solving for Uy, Initial residual = 0.00110245, Final residual = 2.89028e-06, No Iterations 1
DICPCG:  Solving for p, Initial residual = 0.030031, Final residual = 0.00124418, No Iterations 4
DICPCG:  Solving for p, Initial residual = 0.00340349, Final residual = 0.000132413, No Iterations 27
DICPCG:  Solving for p, Initial residual = 0.0008772, Final residual = 4.11184e-05, No Iterations 38
time step continuity errors : sum local = 1.41928e-08, global = -1.15525e-09, cumulative = 5.7543e-07
DICPCG:  Solving for p, Initial residual = 0.00134667, Final residual = 6.42748e-05, No Iterations 5
DICPCG:  Solving for p, Initial residual = 0.000236386, Final residual = 1.06093e-05, No Iterations 23
DICPCG:  Solving for p, Initial residual = 7.57769e-05, Final residual = 9.07018e-07, No Iterations 56
time step continuity errors : sum local = 3.12061e-10, global = -2.65116e-12, cumulative = 5.75428e-07
ExecutionTime = 0.28 s  ClockTime = 1 s

Time = 1.7

Courant Number mean: 0.0792838 max: 0.390355
smoothSolver:  Solving for Ux, Initial residual = 0.0021985, Final residual = 5.28701e-06, No Iterations 1
smoothSolver:  Solving for Uy, Initial residual = 0.00108197, Final residual = 2.8667e-06, No Iterations 1
DICPCG:  Solving for p, Initial residual = 0.0325212, Final residual = 0.00150977, No Iterations 4
DICPCG:  Solving for p, Initial residual = 0.00413648, Final residual = 0.000194165, No Iterations 19
DICPCG:  Solving for p, Initial residual = 0.000915993, Final residual = 3.68311e-05, No Iterations 45
time step continuity errors : sum local = 1.24818e-08, global = -1.81612e-10, cumulative = 5.75246e-07
DICPCG:  Solving for p, Initial residual = 0.00171784, Final residual = 7.39974e-05, No Iterations 5
DICPCG:  Solving for p, Initial residual = 0.00026209, Final residual = 1.20176e-05, No Iterations 21
DICPCG:  Solving for p, Initial residual = 6.94126e-05, Final residual = 9.40144e-07, No Iterations 57
time step continuity errors : sum local = 3.17333e-10, global = -1.89432e-12, cumulative = 5.75244e-07
ExecutionTime = 0.29 s  ClockTime = 1 s

Time = 1.75

Courant Number mean: 0.0793017 max: 0.393477
smoothSolver:  Solving for Ux, Initial residual = 0.00214405, Final residual = 5.05277e-06, No Iterations 1
smoothSolver:  Solving for Uy, Initial residual = 0.00106412, Final residual = 2.93272e-06, No Iterations 1
DICPCG:  Solving for p, Initial residual = 0.0299804, Final residual = 0.00109278, No Iterations 4
DICPCG:  Solving for p, Initial residual = 0.00320384, Final residual = 0.00015979, No Iterations 27
DICPCG:  Solving for p, Initial residual = 0.000777907, Final residual = 2.49316e-05, No Iterations 49
time step continuity errors : sum local = 8.34857e-09, global = -1.91961e-10, cumulative = 5.75052e-07
DICPCG:  Solving for p, Initial residual = 0.00145477, Final residual = 6.84337e-05, No Iterations 5
DICPCG:  Solving for p, Initial residual = 0.000214075, Final residual = 9.99672e-06, No Iterations 25
DICPCG:  Solving for p, Initial residual = 5.95635e-05, Final residual = 9.75415e-07, No Iterations 49
time step continuity errors : sum local = 3.25448e-10, global = -8.43501e-12, cumulative = 5.75044e-07
ExecutionTime = 0.3 s  ClockTime = 1 s

Time = 1.8

Courant Number mean: 0.0793191 max: 0.396529
smoothSolver:  Solving for Ux, Initial residual = 0.00209265, Final residual = 5.1193e-06, No Iterations 1
smoothSolver:  Solving for Uy, Initial residual = 0.00104434, Final residual = 2.88865e-06, No Iterations 1
DICPCG:  Solving for p, Initial residual = 0.0264882, Final residual = 0.00112331, No Iterations 4
DICPCG:  Solving for p, Initial residual = 0.00289621, Final residual = 0.00013433, No Iterations 50
DICPCG:  Solving for p, Initial residual = 0.000813903, Final residual = 3.72411e-05, No Iterations 13
time step continuity errors : sum local = 1.22404e-08, global = 1.63544e-09, cumulative = 5.76679e-07
DICPCG:  Solving for p, Initial residual = 0.00118742, Final residual = 4.19158e-05, No Iterations 5
DICPCG:  Solving for p, Initial residual = 0.000182949, Final residual = 9.07144e-06, No Iterations 21
DICPCG:  Solving for p, Initial residual = 5.38398e-05, Final residual = 9.09618e-07, No Iterations 25
time step continuity errors : sum local = 2.99039e-10, global = 2.31048e-11, cumulative = 5.76702e-07
ExecutionTime = 0.31 s  ClockTime = 1 s

Time = 1.85

Courant Number mean: 0.0793387 max: 0.399488
smoothSolver:  Solving for Ux, Initial residual = 0.00205212, Final residual = 5.22807e-06, No Iterations 1
smoothSolver:  Solving for Uy, Initial residual = 0.00102436, Final residual = 2.85518e-06, No Iterations 1
DICPCG:  Solving for p, Initial residual = 0.0290942, Final residual = 0.00120377, No Iterations 4
DICPCG:  Solving for p, Initial residual = 0.00330399, Final residual = 0.000150336, No Iterations 20
DICPCG:  Solving for p, Initial residual = 0.000786282, Final residual = 3.70319e-05, No Iterations 35
time step continuity errors : sum local = 1.20084e-08, global = -1.73681e-10, cumulative = 5.76528e-07
DICPCG:  Solving for p, Initial residual = 0.00141377, Final residual = 5.62031e-05, No Iterations 4
DICPCG:  Solving for p, Initial residual = 0.000208963, Final residual = 9.84962e-06, No Iterations 13
DICPCG:  Solving for p, Initial residual = 4.23625e-05, Final residual = 9.60159e-07, No Iterations 55
time step continuity errors : sum local = 3.10063e-10, global = 4.02736e-12, cumulative = 5.76533e-07
ExecutionTime = 0.31 s  ClockTime = 1 s

Time = 1.9

Courant Number mean: 0.079357 max: 0.402314
smoothSolver:  Solving for Ux, Initial residual = 0.00202253, Final residual = 5.24627e-06, No Iterations 1
smoothSolver:  Solving for Uy, Initial residual = 0.0010019, Final residual = 2.80708e-06, No Iterations 1
DICPCG:  Solving for p, Initial residual = 0.0266771, Final residual = 0.00129537, No Iterations 4
DICPCG:  Solving for p, Initial residual = 0.00313191, Final residual = 0.000143007, No Iterations 27
DICPCG:  Solving for p, Initial residual = 0.000802806, Final residual = 3.99994e-05, No Iterations 36
time step continuity errors : sum local = 1.28495e-08, global = 3.61241e-10, cumulative = 5.76894e-07
DICPCG:  Solving for p, Initial residual = 0.0012951, Final residual = 5.5333e-05, No Iterations 5
DICPCG:  Solving for p, Initial residual = 0.000199692, Final residual = 8.53006e-06, No Iterations 23
DICPCG:  Solving for p, Initial residual = 5.62205e-05, Final residual = 9.11266e-07, No Iterations 55
time step continuity errors : sum local = 2.91852e-10, global = -8.42742e-12, cumulative = 5.76885e-07
ExecutionTime = 0.32 s  ClockTime = 1 s

Time = 1.95

Courant Number mean: 0.0793753 max: 0.405071
smoothSolver:  Solving for Ux, Initial residual = 0.00198281, Final residual = 4.98944e-06, No Iterations 1
smoothSolver:  Solving for Uy, Initial residual = 0.000984684, Final residual = 2.72876e-06, No Iterations 1
DICPCG:  Solving for p, Initial residual = 0.0275564, Final residual = 0.00137468, No Iterations 4
DICPCG:  Solving for p, Initial residual = 0.00354189, Final residual = 0.000157729, No Iterations 17
DICPCG:  Solving for p, Initial residual = 0.00066425, Final residual = 3.18289e-05, No Iterations 48
time step continuity errors : sum local = 1.00988e-08, global = 5.6685e-10, cumulative = 5.77452e-07
DICPCG:  Solving for p, Initial residual = 0.00136835, Final residual = 5.75027e-05, No Iterations 4
DICPCG:  Solving for p, Initial residual = 0.000196895, Final residual = 8.84535e-06, No Iterations 13
DICPCG:  Solving for p, Initial residual = 4.00291e-05, Final residual = 6.80718e-07, No Iterations 52
time step continuity errors : sum local = 2.15304e-10, global = -6.79185e-12, cumulative = 5.77445e-07
ExecutionTime = 0.33 s  ClockTime = 1 s

Time = 2

Courant Number mean: 0.0793943 max: 0.40771
smoothSolver:  Solving for Ux, Initial residual = 0.00195218, Final residual = 4.95479e-06, No Iterations 1
smoothSolver:  Solving for Uy, Initial residual = 0.000967958, Final residual = 2.63814e-06, No Iterations 1
DICPCG:  Solving for p, Initial residual = 0.0267334, Final residual = 0.00110162, No Iterations 4
DICPCG:  Solving for p, Initial residual = 0.00305371, Final residual = 0.000129047, No Iterations 26
DICPCG:  Solving for p, Initial residual = 0.000647957, Final residual = 2.7716e-05, No Iterations 38
time step continuity errors : sum local = 8.72984e-09, global = 3.15991e-11, cumulative = 5.77477e-07
DICPCG:  Solving for p, Initial residual = 0.00130346, Final residual = 6.10326e-05, No Iterations 3
DICPCG:  Solving for p, Initial residual = 0.000187309, Final residual = 9.15085e-06, No Iterations 16
DICPCG:  Solving for p, Initial residual = 5.2134e-05, Final residual = 9.85397e-07, No Iterations 55
time step continuity errors : sum local = 3.09645e-10, global = -1.89053e-12, cumulative = 5.77475e-07
ExecutionTime = 0.34 s  ClockTime = 1 s

Time = 2.05

Courant Number mean: 0.0794129 max: 0.410177
smoothSolver:  Solving for Ux, Initial residual = 0.00191981, Final residual = 4.90221e-06, No Iterations 1
smoothSolver:  Solving for Uy, Initial residual = 0.000951477, Final residual = 2.62023e-06, No Iterations 1
DICPCG:  Solving for p, Initial residual = 0.0253457, Final residual = 0.0011183, No Iterations 5
DICPCG:  Solving for p, Initial residual = 0.00333946, Final residual = 0.000132741, No Iterations 17
DICPCG:  Solving for p, Initial residual = 0.000719856, Final residual = 3.26881e-05, No Iterations 41
time step continuity errors : sum local = 1.0182e-08, global = 3.60067e-10, cumulative = 5.77835e-07
DICPCG:  Solving for p, Initial residual = 0.0012264, Final residual = 5.53164e-05, No Iterations 6
DICPCG:  Solving for p, Initial residual = 0.000185988, Final residual = 8.58099e-06, No Iterations 21
DICPCG:  Solving for p, Initial residual = 4.78572e-05, Final residual = 8.03106e-07, No Iterations 26
time step continuity errors : sum local = 2.49813e-10, global = 5.8865e-12, cumulative = 5.77841e-07
ExecutionTime = 0.34 s  ClockTime = 1 s

Time = 2.1

Courant Number mean: 0.0794328 max: 0.412577
smoothSolver:  Solving for Ux, Initial residual = 0.001882, Final residual = 4.83887e-06, No Iterations 1
smoothSolver:  Solving for Uy, Initial residual = 0.000935281, Final residual = 2.57284e-06, No Iterations 1
DICPCG:  Solving for p, Initial residual = 0.0252262, Final residual = 0.0010372, No Iterations 6
DICPCG:  Solving for p, Initial residual = 0.00358041, Final residual = 0.000173397, No Iterations 15
DICPCG:  Solving for p, Initial residual = 0.000714972, Final residual = 3.30538e-05, No Iterations 19
time step continuity errors : sum local = 1.01368e-08, global = 1.06982e-10, cumulative = 5.77948e-07
DICPCG:  Solving for p, Initial residual = 0.00121349, Final residual = 4.42304e-05, No Iterations 8
DICPCG:  Solving for p, Initial residual = 0.000194941, Final residual = 8.45172e-06, No Iterations 51
DICPCG:  Solving for p, Initial residual = 7.55449e-05, Final residual = 8.57449e-07, No Iterations 18
time step continuity errors : sum local = 2.62919e-10, global = -2.57472e-12, cumulative = 5.77945e-07
ExecutionTime = 0.35 s  ClockTime = 1 s

Time = 2.15

Courant Number mean: 0.0794526 max: 0.414957
smoothSolver:  Solving for Ux, Initial residual = 0.001842, Final residual = 4.75738e-06, No Iterations 1
smoothSolver:  Solving for Uy, Initial residual = 0.000919383, Final residual = 2.54091e-06, No Iterations 1
DICPCG:  Solving for p, Initial residual = 0.0229779, Final residual = 0.000979094, No Iterations 5
DICPCG:  Solving for p, Initial residual = 0.00287425, Final residual = 0.000131311, No Iterations 25
DICPCG:  Solving for p, Initial residual = 0.000666841, Final residual = 3.14044e-05, No Iterations 52
time step continuity errors : sum local = 9.55306e-09, global = 1.78591e-10, cumulative = 5.78124e-07
DICPCG:  Solving for p, Initial residual = 0.00111382, Final residual = 5.35929e-05, No Iterations 5
DICPCG:  Solving for p, Initial residual = 0.000174516, Final residual = 8.21157e-06, No Iterations 18
DICPCG:  Solving for p, Initial residual = 4.65766e-05, Final residual = 8.97018e-07, No Iterations 52
time step continuity errors : sum local = 2.72437e-10, global = 2.28492e-12, cumulative = 5.78126e-07
ExecutionTime = 0.36 s  ClockTime = 1 s

Time = 2.2

Courant Number mean: 0.0794718 max: 0.417312
smoothSolver:  Solving for Ux, Initial residual = 0.00181104, Final residual = 4.65007e-06, No Iterations 1
smoothSolver:  Solving for Uy, Initial residual = 0.000900311, Final residual = 2.56972e-06, No Iterations 1
DICPCG:  Solving for p, Initial residual = 0.0220239, Final residual = 0.0010203, No Iterations 5
DICPCG:  Solving for p, Initial residual = 0.00300281, Final residual = 0.000147367, No Iterations 24
DICPCG:  Solving for p, Initial residual = 0.000707159, Final residual = 3.4762e-05, No Iterations 51
time step continuity errors : sum local = 1.04326e-08, global = 5.55485e-11, cumulative = 5.78182e-07
DICPCG:  Solving for p, Initial residual = 0.00103344, Final residual = 4.53638e-05, No Iterations 6
DICPCG:  Solving for p, Initial residual = 0.000177937, Final residual = 8.15808e-06, No Iterations 19
DICPCG:  Solving for p, Initial residual = 4.49832e-05, Final residual = 8.717e-07, No Iterations 26
time step continuity errors : sum local = 2.61315e-10, global = -1.72807e-11, cumulative = 5.78165e-07
ExecutionTime = 0.37 s  ClockTime = 1 s

Time = 2.25

Courant Number mean: 0.0794905 max: 0.419657
smoothSolver:  Solving for Ux, Initial residual = 0.00177889, Final residual = 4.48472e-06, No Iterations 1
smoothSolver:  Solving for Uy, Initial residual = 0.000888397, Final residual = 2.57581e-06, No Iterations 1
DICPCG:  Solving for p, Initial residual = 0.0208176, Final residual = 0.00103044, No Iterations 5
DICPCG:  Solving for p, Initial residual = 0.00276327, Final residual = 0.00012682, No Iterations 25
DICPCG:  Solving for p, Initial residual = 0.000647843, Final residual = 3.04584e-05, No Iterations 50
time step continuity errors : sum local = 9.01336e-09, global = -1.27723e-10, cumulative = 5.78037e-07
DICPCG:  Solving for p, Initial residual = 0.000968983, Final residual = 4.62628e-05, No Iterations 6
DICPCG:  Solving for p, Initial residual = 0.000178018, Final residual = 8.46615e-06, No Iterations 19
DICPCG:  Solving for p, Initial residual = 4.62734e-05, Final residual = 9.65548e-07, No Iterations 26
time step continuity errors : sum local = 2.85486e-10, global = 1.52886e-11, cumulative = 5.78052e-07
ExecutionTime = 0.38 s  ClockTime = 1 s

Time = 2.3

Courant Number mean: 0.0795089 max: 0.421995
smoothSolver:  Solving for Ux, Initial residual = 0.00174993, Final residual = 4.38779e-06, No Iterations 1
smoothSolver:  Solving for Uy, Initial residual = 0.000877459, Final residual = 2.57188e-06, No Iterations 1
DICPCG:  Solving for p, Initial residual = 0.020323, Final residual = 0.000979575, No Iterations 5
DICPCG:  Solving for p, Initial residual = 0.00272403, Final residual = 0.000129778, No Iterations 25
DICPCG:  Solving for p, Initial residual = 0.000612684, Final residual = 2.95077e-05, No Iterations 50
time step continuity errors : sum local = 8.62063e-09, global = 2.50871e-11, cumulative = 5.78077e-07
DICPCG:  Solving for p, Initial residual = 0.0009602, Final residual = 4.40478e-05, No Iterations 6
DICPCG:  Solving for p, Initial residual = 0.000178941, Final residual = 8.85353e-06, No Iterations 19
DICPCG:  Solving for p, Initial residual = 4.35002e-05, Final residual = 9.42458e-07, No Iterations 26
time step continuity errors : sum local = 2.75048e-10, global = -3.90977e-11, cumulative = 5.78038e-07
ExecutionTime = 0.38 s  ClockTime = 1 s

Time = 2.35

Courant Number mean: 0.0795268 max: 0.424327
smoothSolver:  Solving for Ux, Initial residual = 0.00172215, Final residual = 4.25371e-06, No Iterations 1
smoothSolver:  Solving for Uy, Initial residual = 0.000865573, Final residual = 2.57635e-06, No Iterations 1
DICPCG:  Solving for p, Initial residual = 0.0205053, Final residual = 0.000979067, No Iterations 5
DICPCG:  Solving for p, Initial residual = 0.00279364, Final residual = 0.000136451, No Iterations 24
DICPCG:  Solving for p, Initial residual = 0.000609211, Final residual = 2.74342e-05, No Iterations 52
time step continuity errors : sum local = 7.92532e-09, global = -2.04216e-10, cumulative = 5.77834e-07
DICPCG:  Solving for p, Initial residual = 0.00104676, Final residual = 4.48349e-05, No Iterations 6
DICPCG:  Solving for p, Initial residual = 0.000189396, Final residual = 8.47831e-06, No Iterations 18
DICPCG:  Solving for p, Initial residual = 3.97228e-05, Final residual = 8.26059e-07, No Iterations 57
time step continuity errors : sum local = 2.38229e-10, global = 6.85639e-13, cumulative = 5.77835e-07
ExecutionTime = 0.39 s  ClockTime = 1 s

Time = 2.4

Courant Number mean: 0.0795444 max: 0.426651
smoothSolver:  Solving for Ux, Initial residual = 0.00169514, Final residual = 4.17163e-06, No Iterations 1
smoothSolver:  Solving for Uy, Initial residual = 0.000855281, Final residual = 2.61077e-06, No Iterations 1
DICPCG:  Solving for p, Initial residual = 0.020281, Final residual = 0.000929578, No Iterations 5
DICPCG:  Solving for p, Initial residual = 0.00275117, Final residual = 0.00012839, No Iterations 25
DICPCG:  Solving for p, Initial residual = 0.000613407, Final residual = 2.88323e-05, No Iterations 46
time step continuity errors : sum local = 8.24873e-09, global = 7.32974e-11, cumulative = 5.77908e-07
DICPCG:  Solving for p, Initial residual = 0.00107247, Final residual = 4.75512e-05, No Iterations 6
DICPCG:  Solving for p, Initial residual = 0.000189362, Final residual = 8.51956e-06, No Iterations 20
DICPCG:  Solving for p, Initial residual = 5.04133e-05, Final residual = 7.8643e-07, No Iterations 56
time step continuity errors : sum local = 2.24593e-10, global = 3.64844e-12, cumulative = 5.77912e-07
ExecutionTime = 0.4 s  ClockTime = 1 s

Time = 2.45

Courant Number mean: 0.0795625 max: 0.428984
smoothSolver:  Solving for Ux, Initial residual = 0.00167235, Final residual = 4.07688e-06, No Iterations 1
smoothSolver:  Solving for Uy, Initial residual = 0.000845112, Final residual = 2.60617e-06, No Iterations 1
DICPCG:  Solving for p, Initial residual = 0.0180272, Final residual = 0.000897252, No Iterations 5
DICPCG:  Solving for p, Initial residual = 0.0026078, Final residual = 9.66494e-05, No Iterations 26
DICPCG:  Solving for p, Initial residual = 0.000610061, Final residual = 2.6112e-05, No Iterations 36
time step continuity errors : sum local = 7.38183e-09, global = 2.31005e-11, cumulative = 5.77935e-07
DICPCG:  Solving for p, Initial residual = 0.00100077, Final residual = 4.75207e-05, No Iterations 7
DICPCG:  Solving for p, Initial residual = 0.000188447, Final residual = 8.34266e-06, No Iterations 18
DICPCG:  Solving for p, Initial residual = 4.44095e-05, Final residual = 7.90697e-07, No Iterations 48
time step continuity errors : sum local = 2.23107e-10, global = 7.54636e-12, cumulative = 5.77942e-07
ExecutionTime = 0.41 s  ClockTime = 1 s

Time = 2.5

Courant Number mean: 0.0795804 max: 0.431329
smoothSolver:  Solving for Ux, Initial residual = 0.00165406, Final residual = 4.05696e-06, No Iterations 1
smoothSolver:  Solving for Uy, Initial residual = 0.000835868, Final residual = 2.61353e-06, No Iterations 1
DICPCG:  Solving for p, Initial residual = 0.0192997, Final residual = 0.000869462, No Iterations 5
DICPCG:  Solving for p, Initial residual = 0.00284472, Final residual = 0.000130519, No Iterations 25
DICPCG:  Solving for p, Initial residual = 0.000650974, Final residual = 3.00043e-05, No Iterations 45
time step continuity errors : sum local = 8.37036e-09, global = 4.18531e-10, cumulative = 5.78361e-07
DICPCG:  Solving for p, Initial residual = 0.00110434, Final residual = 5.20976e-05, No Iterations 12
DICPCG:  Solving for p, Initial residual = 0.000241374, Final residual = 9.32998e-06, No Iterations 18
DICPCG:  Solving for p, Initial residual = 5.50891e-05, Final residual = 8.9358e-07, No Iterations 31
time step continuity errors : sum local = 2.48922e-10, global = -1.13838e-12, cumulative = 5.7836e-07
ExecutionTime = 0.41 s  ClockTime = 1 s

Time = 2.55

Courant Number mean: 0.0795978 max: 0.433675
smoothSolver:  Solving for Ux, Initial residual = 0.00163931, Final residual = 4.01098e-06, No Iterations 1
smoothSolver:  Solving for Uy, Initial residual = 0.00082798, Final residual = 2.63486e-06, No Iterations 1
DICPCG:  Solving for p, Initial residual = 0.0195323, Final residual = 0.000886971, No Iterations 6
DICPCG:  Solving for p, Initial residual = 0.00274546, Final residual = 0.000123547, No Iterations 25
DICPCG:  Solving for p, Initial residual = 0.000666514, Final residual = 2.47054e-05, No Iterations 39
time step continuity errors : sum local = 6.813e-09, global = 5.96547e-10, cumulative = 5.78956e-07
DICPCG:  Solving for p, Initial residual = 0.000996447, Final residual = 4.83116e-05, No Iterations 8
DICPCG:  Solving for p, Initial residual = 0.000205706, Final residual = 1.00583e-05, No Iterations 20
DICPCG:  Solving for p, Initial residual = 5.22234e-05, Final residual = 8.92461e-07, No Iterations 30
time step continuity errors : sum local = 2.45821e-10, global = -2.43607e-11, cumulative = 5.78932e-07
ExecutionTime = 0.42 s  ClockTime = 1 s

Time = 2.6

Courant Number mean: 0.0796147 max: 0.436019
smoothSolver:  Solving for Ux, Initial residual = 0.0016192, Final residual = 3.90318e-06, No Iterations 1
smoothSolver:  Solving for Uy, Initial residual = 0.000820508, Final residual = 2.61836e-06, No Iterations 1
DICPCG:  Solving for p, Initial residual = 0.0183425, Final residual = 0.000857872, No Iterations 5
DICPCG:  Solving for p, Initial residual = 0.00255054, Final residual = 0.000120503, No Iterations 25
DICPCG:  Solving for p, Initial residual = 0.000529353, Final residual = 2.34055e-05, No Iterations 40
time step continuity errors : sum local = 6.38003e-09, global = 4.61772e-10, cumulative = 5.79394e-07
DICPCG:  Solving for p, Initial residual = 0.000950324, Final residual = 3.97362e-05, No Iterations 7
DICPCG:  Solving for p, Initial residual = 0.000183777, Final residual = 8.14371e-06, No Iterations 16
DICPCG:  Solving for p, Initial residual = 3.79708e-05, Final residual = 9.84081e-07, No Iterations 30
time step continuity errors : sum local = 2.67994e-10, global = -3.72807e-11, cumulative = 5.79356e-07
ExecutionTime = 0.43 s  ClockTime = 1 s

Time = 2.65

Courant Number mean: 0.0796312 max: 0.438344
smoothSolver:  Solving for Ux, Initial residual = 0.0015983, Final residual = 3.82892e-06, No Iterations 1
smoothSolver:  Solving for Uy, Initial residual = 0.000811766, Final residual = 2.52159e-06, No Iterations 1
DICPCG:  Solving for p, Initial residual = 0.0219069, Final residual = 0.00101981, No Iterations 4
DICPCG:  Solving for p, Initial residual = 0.00311333, Final residual = 0.000124772, No Iterations 19
DICPCG:  Solving for p, Initial residual = 0.00062209, Final residual = 2.7706e-05, No Iterations 46
time step continuity errors : sum local = 7.43768e-09, global = 2.41305e-10, cumulative = 5.79598e-07
DICPCG:  Solving for p, Initial residual = 0.00123428, Final residual = 6.06904e-05, No Iterations 5
DICPCG:  Solving for p, Initial residual = 0.000201477, Final residual = 8.50848e-06, No Iterations 13
DICPCG:  Solving for p, Initial residual = 4.4319e-05, Final residual = 7.46152e-07, No Iterations 32
time step continuity errors : sum local = 2.00118e-10, global = -2.13989e-11, cumulative = 5.79576e-07
ExecutionTime = 0.43 s  ClockTime = 1 s

Time = 2.7

Courant Number mean: 0.0796476 max: 0.440658
smoothSolver:  Solving for Ux, Initial residual = 0.00157884, Final residual = 3.85278e-06, No Iterations 1
smoothSolver:  Solving for Uy, Initial residual = 0.000804121, Final residual = 2.53977e-06, No Iterations 1
DICPCG:  Solving for p, Initial residual = 0.0190098, Final residual = 0.000869553, No Iterations 5
DICPCG:  Solving for p, Initial residual = 0.00249568, Final residual = 0.000121053, No Iterations 23
DICPCG:  Solving for p, Initial residual = 0.00052796, Final residual = 2.55033e-05, No Iterations 53
time step continuity errors : sum local = 6.74953e-09, global = -1.34508e-10, cumulative = 5.79442e-07
DICPCG:  Solving for p, Initial residual = 0.00100514, Final residual = 4.21631e-05, No Iterations 8
DICPCG:  Solving for p, Initial residual = 0.000203234, Final residual = 1.00079e-05, No Iterations 16
DICPCG:  Solving for p, Initial residual = 5.05816e-05, Final residual = 8.83571e-07, No Iterations 55
time step continuity errors : sum local = 2.33797e-10, global = -2.52508e-12, cumulative = 5.79439e-07
ExecutionTime = 0.44 s  ClockTime = 1 s

Time = 2.75

Courant Number mean: 0.0796637 max: 0.442998
smoothSolver:  Solving for Ux, Initial residual = 0.00155818, Final residual = 3.80327e-06, No Iterations 1
smoothSolver:  Solving for Uy, Initial residual = 0.000797702, Final residual = 2.51317e-06, No Iterations 1
DICPCG:  Solving for p, Initial residual = 0.0176662, Final residual = 0.000723699, No Iterations 6
DICPCG:  Solving for p, Initial residual = 0.00237907, Final residual = 0.000117564, No Iterations 22
DICPCG:  Solving for p, Initial residual = 0.000504515, Final residual = 2.08659e-05, No Iterations 52
time step continuity errors : sum local = 5.45805e-09, global = 9.49687e-12, cumulative = 5.79449e-07
DICPCG:  Solving for p, Initial residual = 0.000958942, Final residual = 4.3215e-05, No Iterations 8
DICPCG:  Solving for p, Initial residual = 0.000201927, Final residual = 8.25733e-06, No Iterations 19
DICPCG:  Solving for p, Initial residual = 5.50637e-05, Final residual = 9.68727e-07, No Iterations 54
time step continuity errors : sum local = 2.53314e-10, global = 2.35282e-12, cumulative = 5.79451e-07
ExecutionTime = 0.45 s  ClockTime = 1 s

Time = 2.8

Courant Number mean: 0.0796793 max: 0.445339
smoothSolver:  Solving for Ux, Initial residual = 0.00153909, Final residual = 3.78931e-06, No Iterations 1
smoothSolver:  Solving for Uy, Initial residual = 0.000792842, Final residual = 2.53648e-06, No Iterations 1
DICPCG:  Solving for p, Initial residual = 0.0199595, Final residual = 0.000768344, No Iterations 5
DICPCG:  Solving for p, Initial residual = 0.00266281, Final residual = 0.000119579, No Iterations 12
DICPCG:  Solving for p, Initial residual = 0.000520419, Final residual = 2.3047e-05, No Iterations 50
time step continuity errors : sum local = 5.94743e-09, global = 3.69009e-10, cumulative = 5.7982e-07
DICPCG:  Solving for p, Initial residual = 0.00113979, Final residual = 5.43638e-05, No Iterations 7
DICPCG:  Solving for p, Initial residual = 0.000218867, Final residual = 1.00553e-05, No Iterations 17
DICPCG:  Solving for p, Initial residual = 5.50567e-05, Final residual = 7.17389e-07, No Iterations 58
time step continuity errors : sum local = 1.85038e-10, global = 6.87729e-13, cumulative = 5.79821e-07
ExecutionTime = 0.46 s  ClockTime = 1 s

Time = 2.85

Courant Number mean: 0.0796941 max: 0.447653
smoothSolver:  Solving for Ux, Initial residual = 0.00152216, Final residual = 3.75836e-06, No Iterations 1
smoothSolver:  Solving for Uy, Initial residual = 0.000787463, Final residual = 2.54914e-06, No Iterations 1
DICPCG:  Solving for p, Initial residual = 0.0170901, Final residual = 0.000854421, No Iterations 6
DICPCG:  Solving for p, Initial residual = 0.00264725, Final residual = 0.000130331, No Iterations 20
DICPCG:  Solving for p, Initial residual = 0.000564412, Final residual = 2.15422e-05, No Iterations 25
time step continuity errors : sum local = 5.49856e-09, global = 1.38756e-09, cumulative = 5.81208e-07
DICPCG:  Solving for p, Initial residual = 0.000961815, Final residual = 4.65011e-05, No Iterations 10
DICPCG:  Solving for p, Initial residual = 0.000219772, Final residual = 1.06842e-05, No Iterations 52
DICPCG:  Solving for p, Initial residual = 9.23438e-05, Final residual = 9.94506e-07, No Iterations 20
time step continuity errors : sum local = 2.5381e-10, global = -4.80179e-11, cumulative = 5.8116e-07
ExecutionTime = 0.46 s  ClockTime = 1 s

Time = 2.9

Courant Number mean: 0.0797083 max: 0.44994
smoothSolver:  Solving for Ux, Initial residual = 0.00150789, Final residual = 3.90286e-06, No Iterations 1
smoothSolver:  Solving for Uy, Initial residual = 0.000783214, Final residual = 2.59773e-06, No Iterations 1
DICPCG:  Solving for p, Initial residual = 0.0167113, Final residual = 0.000686857, No Iterations 7
DICPCG:  Solving for p, Initial residual = 0.00265222, Final residual = 0.000127331, No Iterations 17
DICPCG:  Solving for p, Initial residual = 0.000503093, Final residual = 2.35327e-05, No Iterations 23
time step continuity errors : sum local = 5.96087e-09, global = 9.13305e-10, cumulative = 5.82074e-07
DICPCG:  Solving for p, Initial residual = 0.000979887, Final residual = 4.50785e-05, No Iterations 8
DICPCG:  Solving for p, Initial residual = 0.000202394, Final residual = 9.06404e-06, No Iterations 53
DICPCG:  Solving for p, Initial residual = 8.58448e-05, Final residual = 8.95839e-07, No Iterations 20
time step continuity errors : sum local = 2.26897e-10, global = -2.84521e-11, cumulative = 5.82045e-07
ExecutionTime = 0.47 s  ClockTime = 1 s

Time = 2.95

Courant Number mean: 0.0797221 max: 0.452217
smoothSolver:  Solving for Ux, Initial residual = 0.00149494, Final residual = 3.8581e-06, No Iterations 1
smoothSolver:  Solving for Uy, Initial residual = 0.000780602, Final residual = 2.60069e-06, No Iterations 1
DICPCG:  Solving for p, Initial residual = 0.0174746, Final residual = 0.000761724, No Iterations 7
DICPCG:  Solving for p, Initial residual = 0.00276637, Final residual = 0.000130529, No Iterations 24
DICPCG:  Solving for p, Initial residual = 0.000667967, Final residual = 2.80206e-05, No Iterations 49
time step continuity errors : sum local = 7.0586e-09, global = 1.20909e-10, cumulative = 5.82166e-07
DICPCG:  Solving for p, Initial residual = 0.000928011, Final residual = 4.02241e-05, No Iterations 8
DICPCG:  Solving for p, Initial residual = 0.000192554, Final residual = 7.41972e-06, No Iterations 19
DICPCG:  Solving for p, Initial residual = 5.21433e-05, Final residual = 9.5947e-07, No Iterations 56
time step continuity errors : sum local = 2.41513e-10, global = 3.7896e-12, cumulative = 5.8217e-07
ExecutionTime = 0.48 s  ClockTime = 1 s

Time = 3

Courant Number mean: 0.079738 max: 0.45445
smoothSolver:  Solving for Ux, Initial residual = 0.0014829, Final residual = 3.99372e-06, No Iterations 1
smoothSolver:  Solving for Uy, Initial residual = 0.000780412, Final residual = 2.63146e-06, No Iterations 1
DICPCG:  Solving for p, Initial residual = 0.0200544, Final residual = 0.00092848, No Iterations 7
DICPCG:  Solving for p, Initial residual = 0.0029767, Final residual = 0.000141468, No Iterations 16
DICPCG:  Solving for p, Initial residual = 0.000701362, Final residual = 3.41428e-05, No Iterations 15
time step continuity errors : sum local = 8.47701e-09, global = -1.55278e-09, cumulative = 5.80617e-07
DICPCG:  Solving for p, Initial residual = 0.00119101, Final residual = 5.2901e-05, No Iterations 7
DICPCG:  Solving for p, Initial residual = 0.000281854, Final residual = 1.35509e-05, No Iterations 42
DICPCG:  Solving for p, Initial residual = 0.000125259, Final residual = 9.47804e-07, No Iterations 25
time step continuity errors : sum local = 2.35721e-10, global = 2.1545e-11, cumulative = 5.80639e-07
ExecutionTime = 0.49 s  ClockTime = 1 s

Time = 3.05

Courant Number mean: 0.0797538 max: 0.456606
smoothSolver:  Solving for Ux, Initial residual = 0.00147079, Final residual = 3.9605e-06, No Iterations 1
smoothSolver:  Solving for Uy, Initial residual = 0.000774276, Final residual = 2.63516e-06, No Iterations 1
DICPCG:  Solving for p, Initial residual = 0.0195519, Final residual = 0.000814151, No Iterations 6
DICPCG:  Solving for p, Initial residual = 0.00270745, Final residual = 0.000133298, No Iterations 15
DICPCG:  Solving for p, Initial residual = 0.000527718, Final residual = 2.47908e-05, No Iterations 25
time step continuity errors : sum local = 6.14664e-09, global = 5.86387e-10, cumulative = 5.81225e-07
DICPCG:  Solving for p, Initial residual = 0.000993872, Final residual = 4.60904e-05, No Iterations 6
DICPCG:  Solving for p, Initial residual = 0.000173376, Final residual = 7.72707e-06, No Iterations 44
DICPCG:  Solving for p, Initial residual = 6.42464e-05, Final residual = 8.11925e-07, No Iterations 26
time step continuity errors : sum local = 2.01285e-10, global = 2.62229e-11, cumulative = 5.81251e-07
ExecutionTime = 0.5 s  ClockTime = 1 s

Time = 3.1

Courant Number mean: 0.0797705 max: 0.458709
smoothSolver:  Solving for Ux, Initial residual = 0.00145604, Final residual = 3.91173e-06, No Iterations 1
smoothSolver:  Solving for Uy, Initial residual = 0.000772348, Final residual = 2.62304e-06, No Iterations 1
DICPCG:  Solving for p, Initial residual = 0.0178511, Final residual = 0.000756614, No Iterations 6
DICPCG:  Solving for p, Initial residual = 0.00274888, Final residual = 0.000110071, No Iterations 24
DICPCG:  Solving for p, Initial residual = 0.000592312, Final residual = 2.94556e-05, No Iterations 17
time step continuity errors : sum local = 7.2847e-09, global = 1.88277e-09, cumulative = 5.83134e-07
DICPCG:  Solving for p, Initial residual = 0.000975552, Final residual = 4.3547e-05, No Iterations 6
DICPCG:  Solving for p, Initial residual = 0.000167587, Final residual = 7.72141e-06, No Iterations 39
DICPCG:  Solving for p, Initial residual = 0.000105321, Final residual = 9.78242e-07, No Iterations 39
time step continuity errors : sum local = 2.41735e-10, global = -2.60586e-11, cumulative = 5.83108e-07
ExecutionTime = 0.5 s  ClockTime = 2 s

Time = 3.15

Courant Number mean: 0.0797866 max: 0.460754
smoothSolver:  Solving for Ux, Initial residual = 0.00145016, Final residual = 3.87897e-06, No Iterations 1
smoothSolver:  Solving for Uy, Initial residual = 0.000772195, Final residual = 2.59931e-06, No Iterations 1
DICPCG:  Solving for p, Initial residual = 0.0188218, Final residual = 0.000767317, No Iterations 6
DICPCG:  Solving for p, Initial residual = 0.002959, Final residual = 0.000146274, No Iterations 18
DICPCG:  Solving for p, Initial residual = 0.000570826, Final residual = 2.74625e-05, No Iterations 22
time step continuity errors : sum local = 6.77996e-09, global = 1.80461e-10, cumulative = 5.83288e-07
DICPCG:  Solving for p, Initial residual = 0.00109763, Final residual = 4.98345e-05, No Iterations 5
DICPCG:  Solving for p, Initial residual = 0.000182054, Final residual = 8.01787e-06, No Iterations 13
DICPCG:  Solving for p, Initial residual = 3.92746e-05, Final residual = 8.10063e-07, No Iterations 52
time step continuity errors : sum local = 2.00059e-10, global = -9.49681e-12, cumulative = 5.83279e-07
ExecutionTime = 0.51 s  ClockTime = 2 s

Time = 3.2

Courant Number mean: 0.0798022 max: 0.462749
smoothSolver:  Solving for Ux, Initial residual = 0.00144207, Final residual = 3.86632e-06, No Iterations 1
smoothSolver:  Solving for Uy, Initial residual = 0.000770362, Final residual = 2.56851e-06, No Iterations 1
DICPCG:  Solving for p, Initial residual = 0.0164403, Final residual = 0.000745414, No Iterations 6
DICPCG:  Solving for p, Initial residual = 0.00267888, Final residual = 0.000129101, No Iterations 15
DICPCG:  Solving for p, Initial residual = 0.000531735, Final residual = 2.50311e-05, No Iterations 54
time step continuity errors : sum local = 6.13968e-09, global = -9.18315e-11, cumulative = 5.83187e-07
DICPCG:  Solving for p, Initial residual = 0.000991149, Final residual = 4.26337e-05, No Iterations 6
DICPCG:  Solving for p, Initial residual = 0.000179905, Final residual = 8.3495e-06, No Iterations 14
DICPCG:  Solving for p, Initial residual = 3.82416e-05, Final residual = 9.245e-07, No Iterations 32
time step continuity errors : sum local = 2.26568e-10, global = -5.7047e-11, cumulative = 5.8313e-07
ExecutionTime = 0.52 s  ClockTime = 2 s

Time = 3.25

Courant Number mean: 0.0798179 max: 0.464702
smoothSolver:  Solving for Ux, Initial residual = 0.00142983, Final residual = 3.9801e-06, No Iterations 1
smoothSolver:  Solving for Uy, Initial residual = 0.000767832, Final residual = 2.55455e-06, No Iterations 1
DICPCG:  Solving for p, Initial residual = 0.0188211, Final residual = 0.000833857, No Iterations 6
DICPCG:  Solving for p, Initial residual = 0.00259268, Final residual = 0.000114244, No Iterations 14
DICPCG:  Solving for p, Initial residual = 0.00053646, Final residual = 2.04966e-05, No Iterations 48
time step continuity errors : sum local = 4.97978e-09, global = -1.92636e-11, cumulative = 5.83111e-07
DICPCG:  Solving for p, Initial residual = 0.00127901, Final residual = 5.75658e-05, No Iterations 6
DICPCG:  Solving for p, Initial residual = 0.000238954, Final residual = 1.17969e-05, No Iterations 14
DICPCG:  Solving for p, Initial residual = 5.64971e-05, Final residual = 8.90399e-07, No Iterations 32
time step continuity errors : sum local = 2.16102e-10, global = 1.49162e-11, cumulative = 5.83126e-07
ExecutionTime = 0.53 s  ClockTime = 2 s

Time = 3.3

Courant Number mean: 0.0798341 max: 0.466616
smoothSolver:  Solving for Ux, Initial residual = 0.0014178, Final residual = 3.97274e-06, No Iterations 1
smoothSolver:  Solving for Uy, Initial residual = 0.000762778, Final residual = 2.4842e-06, No Iterations 1
DICPCG:  Solving for p, Initial residual = 0.0188757, Final residual = 0.000814791, No Iterations 5
DICPCG:  Solving for p, Initial residual = 0.00288242, Final residual = 0.000131693, No Iterations 18
DICPCG:  Solving for p, Initial residual = 0.000613425, Final residual = 2.68302e-05, No Iterations 43
time step continuity errors : sum local = 6.47825e-09, global = -1.33998e-11, cumulative = 5.83112e-07
DICPCG:  Solving for p, Initial residual = 0.00136171, Final residual = 5.83106e-05, No Iterations 5
DICPCG:  Solving for p, Initial residual = 0.000237168, Final residual = 1.09945e-05, No Iterations 14
DICPCG:  Solving for p, Initial residual = 5.81281e-05, Final residual = 8.25647e-07, No Iterations 56
time step continuity errors : sum local = 1.99045e-10, global = 5.98168e-12, cumulative = 5.83118e-07
ExecutionTime = 0.53 s  ClockTime = 2 s

Time = 3.35

Courant Number mean: 0.0798502 max: 0.468469
smoothSolver:  Solving for Ux, Initial residual = 0.001405, Final residual = 4.07208e-06, No Iterations 1
smoothSolver:  Solving for Uy, Initial residual = 0.000758782, Final residual = 2.45892e-06, No Iterations 1
DICPCG:  Solving for p, Initial residual = 0.0176189, Final residual = 0.000712876, No Iterations 6
DICPCG:  Solving for p, Initial residual = 0.002781, Final residual = 0.000118012, No Iterations 18
DICPCG:  Solving for p, Initial residual = 0.000559563, Final residual = 1.95247e-05, No Iterations 47
time step continuity errors : sum local = 4.6874e-09, global = -7.2732e-11, cumulative = 5.83045e-07
DICPCG:  Solving for p, Initial residual = 0.0013228, Final residual = 5.50117e-05, No Iterations 5
DICPCG:  Solving for p, Initial residual = 0.000240667, Final residual = 1.1103e-05, No Iterations 14
DICPCG:  Solving for p, Initial residual = 5.57021e-05, Final residual = 7.57255e-07, No Iterations 59
time step continuity errors : sum local = 1.81544e-10, global = -5.0082e-12, cumulative = 5.8304e-07
ExecutionTime = 0.54 s  ClockTime = 2 s

Time = 3.4

Courant Number mean: 0.0798657 max: 0.470272
smoothSolver:  Solving for Ux, Initial residual = 0.00139327, Final residual = 4.15118e-06, No Iterations 1
smoothSolver:  Solving for Uy, Initial residual = 0.000754331, Final residual = 2.43052e-06, No Iterations 1
DICPCG:  Solving for p, Initial residual = 0.0170475, Final residual = 0.000725093, No Iterations 6
DICPCG:  Solving for p, Initial residual = 0.00276976, Final residual = 0.000133929, No Iterations 14
DICPCG:  Solving for p, Initial residual = 0.000582948, Final residual = 2.46805e-05, No Iterations 48
time step continuity errors : sum local = 5.88957e-09, global = 6.03366e-10, cumulative = 5.83644e-07
DICPCG:  Solving for p, Initial residual = 0.00123773, Final residual = 5.66057e-05, No Iterations 5
DICPCG:  Solving for p, Initial residual = 0.000239465, Final residual = 1.06461e-05, No Iterations 13
DICPCG:  Solving for p, Initial residual = 5.54615e-05, Final residual = 8.67931e-07, No Iterations 26
time step continuity errors : sum local = 2.06964e-10, global = 5.11214e-11, cumulative = 5.83695e-07
ExecutionTime = 0.55 s  ClockTime = 2 s

Time = 3.45

Courant Number mean: 0.0798807 max: 0.472026
smoothSolver:  Solving for Ux, Initial residual = 0.00138179, Final residual = 4.15042e-06, No Iterations 1
smoothSolver:  Solving for Uy, Initial residual = 0.000750539, Final residual = 2.34206e-06, No Iterations 1
DICPCG:  Solving for p, Initial residual = 0.0165653, Final residual = 0.000650372, No Iterations 6
DICPCG:  Solving for p, Initial residual = 0.00270256, Final residual = 0.00012762, No Iterations 14
DICPCG:  Solving for p, Initial residual = 0.000555593, Final residual = 2.6041e-05, No Iterations 47
time step continuity errors : sum local = 6.20396e-09, global = 4.10786e-10, cumulative = 5.84106e-07
DICPCG:  Solving for p, Initial residual = 0.00121928, Final residual = 5.20957e-05, No Iterations 5
DICPCG:  Solving for p, Initial residual = 0.00024091, Final residual = 1.09899e-05, No Iterations 8
DICPCG:  Solving for p, Initial residual = 4.63675e-05, Final residual = 9.04224e-07, No Iterations 56
time step continuity errors : sum local = 2.15111e-10, global = 1.29656e-12, cumulative = 5.84107e-07
ExecutionTime = 0.55 s  ClockTime = 2 s

Time = 3.5

Courant Number mean: 0.0798952 max: 0.473738
smoothSolver:  Solving for Ux, Initial residual = 0.00137179, Final residual = 3.99752e-06, No Iterations 1
smoothSolver:  Solving for Uy, Initial residual = 0.000747642, Final residual = 2.1927e-06, No Iterations 1
DICPCG:  Solving for p, Initial residual = 0.0169857, Final residual = 0.000633789, No Iterations 6
DICPCG:  Solving for p, Initial residual = 0.00264436, Final residual = 0.000127659, No Iterations 13
DICPCG:  Solving for p, Initial residual = 0.000529453, Final residual = 2.51209e-05, No Iterations 41
time step continuity errors : sum local = 5.98635e-09, global = -1.47975e-10, cumulative = 5.83959e-07
DICPCG:  Solving for p, Initial residual = 0.001129, Final residual = 4.92839e-05, No Iterations 5
DICPCG:  Solving for p, Initial residual = 0.000232252, Final residual = 1.07808e-05, No Iterations 7
DICPCG:  Solving for p, Initial residual = 4.29266e-05, Final residual = 9.38619e-07, No Iterations 55
time step continuity errors : sum local = 2.23343e-10, global = 9.76384e-12, cumulative = 5.83969e-07
[...]
DICPCG:  Solving for p, Initial residual = 0.00203892, Final residual = 9.42498e-05, No Iterations 11
DICPCG:  Solving for p, Initial residual = 0.000397649, Final residual = 1.86627e-05, No Iterations 22
time step continuity errors : sum local = 4.49476e-09, global = 7.68709e-10, cumulative = 5.92892e-07
DICPCG:  Solving for p, Initial residual = 0.000637641, Final residual = 2.19894e-05, No Iterations 5
DICPCG:  Solving for p, Initial residual = 0.000109694, Final residual = 4.94491e-06, No Iterations 40
DICPCG:  Solving for p, Initial residual = 4.11347e-05, Final residual = 9.26003e-07, No Iterations 21
time step continuity errors : sum local = 2.22928e-10, global = 8.04474e-12, cumulative = 5.92901e-07
ExecutionTime = 1.38 s  ClockTime = 3 s

Time = 9.2

Courant Number mean: 0.0806984 max: 0.50077
smoothSolver:  Solving for Ux, Initial residual = 0.0010229, Final residual = 2.28783e-06, No Iterations 1
smoothSolver:  Solving for Uy, Initial residual = 0.000699659, Final residual = 1.56748e-06, No Iterations 1
DICPCG:  Solving for p, Initial residual = 0.00891544, Final residual = 0.000311714, No Iterations 5
DICPCG:  Solving for p, Initial residual = 0.00156346, Final residual = 7.6539e-05, No Iterations 6
DICPCG:  Solving for p, Initial residual = 0.000216866, Final residual = 1.00567e-05, No Iterations 44
time step continuity errors : sum local = 2.41643e-09, global = -1.84014e-10, cumulative = 5.92717e-07
DICPCG:  Solving for p, Initial residual = 0.000493676, Final residual = 1.93378e-05, No Iterations 5
DICPCG:  Solving for p, Initial residual = 8.94149e-05, Final residual = 3.81965e-06, No Iterations 17
DICPCG:  Solving for p, Initial residual = 1.95988e-05, Final residual = 9.43591e-07, No Iterations 43
time step continuity errors : sum local = 2.26562e-10, global = 1.01606e-11, cumulative = 5.92727e-07
ExecutionTime = 1.39 s  ClockTime = 3 s

Time = 9.25

Courant Number mean: 0.0807036 max: 0.500605
smoothSolver:  Solving for Ux, Initial residual = 0.00102023, Final residual = 2.28041e-06, No Iterations 1
smoothSolver:  Solving for Uy, Initial residual = 0.000698606, Final residual = 1.54819e-06, No Iterations 1
DICPCG:  Solving for p, Initial residual = 0.00871881, Final residual = 0.000321509, No Iterations 5
DICPCG:  Solving for p, Initial residual = 0.00150699, Final residual = 6.92937e-05, No Iterations 6
DICPCG:  Solving for p, Initial residual = 0.000205861, Final residual = 1.02511e-05, No Iterations 42
time step continuity errors : sum local = 2.45737e-09, global = -1.22332e-10, cumulative = 5.92604e-07
DICPCG:  Solving for p, Initial residual = 0.000455138, Final residual = 1.77815e-05, No Iterations 5
DICPCG:  Solving for p, Initial residual = 8.41076e-05, Final residual = 3.5304e-06, No Iterations 17
DICPCG:  Solving for p, Initial residual = 1.83996e-05, Final residual = 9.21498e-07, No Iterations 13
time step continuity errors : sum local = 2.20834e-10, global = 1.15142e-12, cumulative = 5.92605e-07
ExecutionTime = 1.4 s  ClockTime = 4 s

Time = 9.3

Courant Number mean: 0.0807086 max: 0.500473
smoothSolver:  Solving for Ux, Initial residual = 0.00101879, Final residual = 2.28928e-06, No Iterations 1
smoothSolver:  Solving for Uy, Initial residual = 0.000697996, Final residual = 1.51158e-06, No Iterations 1
DICPCG:  Solving for p, Initial residual = 0.0083341, Final residual = 0.000402041, No Iterations 5
DICPCG:  Solving for p, Initial residual = 0.00159931, Final residual = 7.77282e-05, No Iterations 10
DICPCG:  Solving for p, Initial residual = 0.000274335, Final residual = 1.32183e-05, No Iterations 19
time step continuity errors : sum local = 3.16437e-09, global = -5.987e-10, cumulative = 5.92007e-07
DICPCG:  Solving for p, Initial residual = 0.00048165, Final residual = 1.79314e-05, No Iterations 6
DICPCG:  Solving for p, Initial residual = 9.21134e-05, Final residual = 4.0932e-06, No Iterations 51
DICPCG:  Solving for p, Initial residual = 4.17565e-05, Final residual = 8.72629e-07, No Iterations 11
time step continuity errors : sum local = 2.08987e-10, global = 2.10827e-11, cumulative = 5.92028e-07
ExecutionTime = 1.4 s  ClockTime = 4 s

Time = 9.35

Courant Number mean: 0.0807135 max: 0.500371
smoothSolver:  Solving for Ux, Initial residual = 0.00102054, Final residual = 2.29087e-06, No Iterations 1
smoothSolver:  Solving for Uy, Initial residual = 0.000697586, Final residual = 1.49259e-06, No Iterations 1
DICPCG:  Solving for p, Initial residual = 0.00946812, Final residual = 0.000472849, No Iterations 4
DICPCG:  Solving for p, Initial residual = 0.00142692, Final residual = 6.49324e-05, No Iterations 8
DICPCG:  Solving for p, Initial residual = 0.000254192, Final residual = 1.02728e-05, No Iterations 52
time step continuity errors : sum local = 2.46507e-09, global = 9.46048e-11, cumulative = 5.92122e-07
DICPCG:  Solving for p, Initial residual = 0.000490667, Final residual = 1.95966e-05, No Iterations 5
DICPCG:  Solving for p, Initial residual = 8.45508e-05, Final residual = 3.81862e-06, No Iterations 8
DICPCG:  Solving for p, Initial residual = 1.58792e-05, Final residual = 9.95902e-07, No Iterations 45
time step continuity errors : sum local = 2.38866e-10, global = -1.98195e-12, cumulative = 5.9212e-07
ExecutionTime = 1.41 s  ClockTime = 4 s

Time = 9.4

Courant Number mean: 0.0807185 max: 0.500299
smoothSolver:  Solving for Ux, Initial residual = 0.0010199, Final residual = 2.27901e-06, No Iterations 1
smoothSolver:  Solving for Uy, Initial residual = 0.000697474, Final residual = 1.48026e-06, No Iterations 1
DICPCG:  Solving for p, Initial residual = 0.0108392, Final residual = 0.000512917, No Iterations 6
DICPCG:  Solving for p, Initial residual = 0.00190396, Final residual = 9.50354e-05, No Iterations 11
DICPCG:  Solving for p, Initial residual = 0.000380269, Final residual = 1.88472e-05, No Iterations 23
time step continuity errors : sum local = 4.49832e-09, global = -5.90929e-10, cumulative = 5.9153e-07
DICPCG:  Solving for p, Initial residual = 0.000546202, Final residual = 2.10318e-05, No Iterations 6
DICPCG:  Solving for p, Initial residual = 0.000103847, Final residual = 4.74572e-06, No Iterations 46
DICPCG:  Solving for p, Initial residual = 3.3784e-05, Final residual = 8.97374e-07, No Iterations 16
time step continuity errors : sum local = 2.14282e-10, global = 1.26611e-11, cumulative = 5.91542e-07
ExecutionTime = 1.42 s  ClockTime = 4 s

Time = 9.45

Courant Number mean: 0.0807247 max: 0.500247
smoothSolver:  Solving for Ux, Initial residual = 0.00101957, Final residual = 2.29144e-06, No Iterations 1
smoothSolver:  Solving for Uy, Initial residual = 0.000697367, Final residual = 1.47503e-06, No Iterations 1
DICPCG:  Solving for p, Initial residual = 0.0112648, Final residual = 0.000517657, No Iterations 6
DICPCG:  Solving for p, Initial residual = 0.0019721, Final residual = 9.71779e-05, No Iterations 11
DICPCG:  Solving for p, Initial residual = 0.000386305, Final residual = 1.89377e-05, No Iterations 23
time step continuity errors : sum local = 4.52959e-09, global = -6.51315e-10, cumulative = 5.90891e-07
DICPCG:  Solving for p, Initial residual = 0.000543901, Final residual = 2.12966e-05, No Iterations 6
DICPCG:  Solving for p, Initial residual = 0.00010364, Final residual = 4.08091e-06, No Iterations 51
DICPCG:  Solving for p, Initial residual = 3.44236e-05, Final residual = 8.92284e-07, No Iterations 11
time step continuity errors : sum local = 2.13529e-10, global = 3.49949e-11, cumulative = 5.90926e-07
ExecutionTime = 1.43 s  ClockTime = 4 s

Time = 9.5

Courant Number mean: 0.0807307 max: 0.500209
smoothSolver:  Solving for Ux, Initial residual = 0.00101782, Final residual = 2.2925e-06, No Iterations 1
smoothSolver:  Solving for Uy, Initial residual = 0.000697501, Final residual = 1.47024e-06, No Iterations 1
DICPCG:  Solving for p, Initial residual = 0.00863376, Final residual = 0.000324405, No Iterations 5
DICPCG:  Solving for p, Initial residual = 0.00144742, Final residual = 6.86867e-05, No Iterations 6
DICPCG:  Solving for p, Initial residual = 0.000211996, Final residual = 9.66138e-06, No Iterations 18
time step continuity errors : sum local = 2.31474e-09, global = 2.85911e-10, cumulative = 5.91212e-07
DICPCG:  Solving for p, Initial residual = 0.000454946, Final residual = 1.93402e-05, No Iterations 5
DICPCG:  Solving for p, Initial residual = 8.34565e-05, Final residual = 3.59528e-06, No Iterations 50
DICPCG:  Solving for p, Initial residual = 2.35284e-05, Final residual = 8.99759e-07, No Iterations 12
time step continuity errors : sum local = 2.15564e-10, global = -7.7432e-12, cumulative = 5.91204e-07
ExecutionTime = 1.43 s  ClockTime = 4 s

Time = 9.55

Courant Number mean: 0.0807363 max: 0.500186
smoothSolver:  Solving for Ux, Initial residual = 0.00101699, Final residual = 2.28595e-06, No Iterations 1
smoothSolver:  Solving for Uy, Initial residual = 0.000695557, Final residual = 1.47026e-06, No Iterations 1
DICPCG:  Solving for p, Initial residual = 0.00871522, Final residual = 0.000307746, No Iterations 5
DICPCG:  Solving for p, Initial residual = 0.00136453, Final residual = 6.70218e-05, No Iterations 6
DICPCG:  Solving for p, Initial residual = 0.000212294, Final residual = 9.60438e-06, No Iterations 47
time step continuity errors : sum local = 2.30195e-09, global = 7.78459e-12, cumulative = 5.91212e-07
DICPCG:  Solving for p, Initial residual = 0.00048129, Final residual = 1.92467e-05, No Iterations 5
DICPCG:  Solving for p, Initial residual = 8.63903e-05, Final residual = 3.08479e-06, No Iterations 7
DICPCG:  Solving for p, Initial residual = 1.42517e-05, Final residual = 9.69761e-07, No Iterations 9
time step continuity errors : sum local = 2.32363e-10, global = -2.93138e-11, cumulative = 5.91183e-07
ExecutionTime = 1.44 s  ClockTime = 4 s

Time = 9.6

Courant Number mean: 0.0807416 max: 0.500178
smoothSolver:  Solving for Ux, Initial residual = 0.00101354, Final residual = 2.28371e-06, No Iterations 1
smoothSolver:  Solving for Uy, Initial residual = 0.000694171, Final residual = 1.472e-06, No Iterations 1
DICPCG:  Solving for p, Initial residual = 0.00845657, Final residual = 0.000310248, No Iterations 5
DICPCG:  Solving for p, Initial residual = 0.0013851, Final residual = 5.67953e-05, No Iterations 7
DICPCG:  Solving for p, Initial residual = 0.000221689, Final residual = 9.35296e-06, No Iterations 47
time step continuity errors : sum local = 2.24122e-09, global = 1.09584e-10, cumulative = 5.91292e-07
DICPCG:  Solving for p, Initial residual = 0.000493517, Final residual = 1.86096e-05, No Iterations 5
DICPCG:  Solving for p, Initial residual = 8.84055e-05, Final residual = 3.79896e-06, No Iterations 7
DICPCG:  Solving for p, Initial residual = 1.4917e-05, Final residual = 9.49449e-07, No Iterations 18
time step continuity errors : sum local = 2.27433e-10, global = -2.7293e-11, cumulative = 5.91265e-07
ExecutionTime = 1.45 s  ClockTime = 4 s

Time = 9.65

Courant Number mean: 0.0807467 max: 0.500181
smoothSolver:  Solving for Ux, Initial residual = 0.00100918, Final residual = 2.28625e-06, No Iterations 1
smoothSolver:  Solving for Uy, Initial residual = 0.000692381, Final residual = 1.47608e-06, No Iterations 1
DICPCG:  Solving for p, Initial residual = 0.00915254, Final residual = 0.000385475, No Iterations 5
DICPCG:  Solving for p, Initial residual = 0.00148243, Final residual = 6.52664e-05, No Iterations 12
DICPCG:  Solving for p, Initial residual = 0.000292248, Final residual = 1.36e-05, No Iterations 19
time step continuity errors : sum local = 3.26225e-09, global = -5.55741e-10, cumulative = 5.90709e-07
DICPCG:  Solving for p, Initial residual = 0.00054195, Final residual = 2.50473e-05, No Iterations 5
DICPCG:  Solving for p, Initial residual = 0.000100474, Final residual = 4.79914e-06, No Iterations 50
DICPCG:  Solving for p, Initial residual = 4.42936e-05, Final residual = 8.53718e-07, No Iterations 10
time step continuity errors : sum local = 2.04866e-10, global = 1.45097e-11, cumulative = 5.90724e-07
ExecutionTime = 1.45 s  ClockTime = 4 s

Time = 9.7

Courant Number mean: 0.0807514 max: 0.500194
smoothSolver:  Solving for Ux, Initial residual = 0.0010054, Final residual = 2.29943e-06, No Iterations 1
smoothSolver:  Solving for Uy, Initial residual = 0.000689909, Final residual = 1.47733e-06, No Iterations 1
DICPCG:  Solving for p, Initial residual = 0.00883436, Final residual = 0.000364908, No Iterations 5
DICPCG:  Solving for p, Initial residual = 0.00142943, Final residual = 6.96133e-05, No Iterations 11
DICPCG:  Solving for p, Initial residual = 0.000280751, Final residual = 1.26968e-05, No Iterations 19
time step continuity errors : sum local = 3.04978e-09, global = -4.31984e-10, cumulative = 5.90292e-07
DICPCG:  Solving for p, Initial residual = 0.000533305, Final residual = 2.39667e-05, No Iterations 5
DICPCG:  Solving for p, Initial residual = 9.62277e-05, Final residual = 3.69466e-06, No Iterations 51
DICPCG:  Solving for p, Initial residual = 4.05174e-05, Final residual = 9.84552e-07, No Iterations 9
time step continuity errors : sum local = 2.36573e-10, global = 1.29225e-11, cumulative = 5.90305e-07
ExecutionTime = 1.46 s  ClockTime = 4 s

Time = 9.75

Courant Number mean: 0.0807558 max: 0.500216
smoothSolver:  Solving for Ux, Initial residual = 0.00100106, Final residual = 2.29591e-06, No Iterations 1
smoothSolver:  Solving for Uy, Initial residual = 0.000688054, Final residual = 1.48093e-06, No Iterations 1
DICPCG:  Solving for p, Initial residual = 0.0094502, Final residual = 0.000377983, No Iterations 5
DICPCG:  Solving for p, Initial residual = 0.00143912, Final residual = 6.40657e-05, No Iterations 17
DICPCG:  Solving for p, Initial residual = 0.000298025, Final residual = 1.17406e-05, No Iterations 47
time step continuity errors : sum local = 2.82737e-09, global = 1.61817e-10, cumulative = 5.90466e-07
DICPCG:  Solving for p, Initial residual = 0.000555039, Final residual = 2.36553e-05, No Iterations 5
DICPCG:  Solving for p, Initial residual = 9.64117e-05, Final residual = 4.18256e-06, No Iterations 9
DICPCG:  Solving for p, Initial residual = 2.13006e-05, Final residual = 9.34183e-07, No Iterations 49
time step continuity errors : sum local = 2.25093e-10, global = -9.67503e-12, cumulative = 5.90457e-07
ExecutionTime = 1.47 s  ClockTime = 4 s

Time = 9.8

Courant Number mean: 0.0807599 max: 0.500246
smoothSolver:  Solving for Ux, Initial residual = 0.000994984, Final residual = 2.28338e-06, No Iterations 1
smoothSolver:  Solving for Uy, Initial residual = 0.000686512, Final residual = 1.46847e-06, No Iterations 1
DICPCG:  Solving for p, Initial residual = 0.00941587, Final residual = 0.000320546, No Iterations 5
DICPCG:  Solving for p, Initial residual = 0.00125213, Final residual = 6.0346e-05, No Iterations 12
DICPCG:  Solving for p, Initial residual = 0.000244862, Final residual = 1.19992e-05, No Iterations 30
time step continuity errors : sum local = 2.89804e-09, global = -5.63553e-10, cumulative = 5.89893e-07
DICPCG:  Solving for p, Initial residual = 0.000493106, Final residual = 1.72012e-05, No Iterations 5
DICPCG:  Solving for p, Initial residual = 8.34485e-05, Final residual = 4.1106e-06, No Iterations 48
DICPCG:  Solving for p, Initial residual = 2.73812e-05, Final residual = 8.60964e-07, No Iterations 8
time step continuity errors : sum local = 2.08033e-10, global = 1.25355e-11, cumulative = 5.89906e-07
ExecutionTime = 1.48 s  ClockTime = 4 s

Time = 9.85

Courant Number mean: 0.0807637 max: 0.500287
smoothSolver:  Solving for Ux, Initial residual = 0.000992025, Final residual = 2.2804e-06, No Iterations 1
smoothSolver:  Solving for Uy, Initial residual = 0.000685557, Final residual = 1.46349e-06, No Iterations 1
DICPCG:  Solving for p, Initial residual = 0.0101815, Final residual = 0.000461179, No Iterations 4
DICPCG:  Solving for p, Initial residual = 0.00125637, Final residual = 6.14441e-05, No Iterations 12
DICPCG:  Solving for p, Initial residual = 0.000277216, Final residual = 1.37702e-05, No Iterations 18
time step continuity errors : sum local = 3.33564e-09, global = -3.29181e-10, cumulative = 5.89576e-07
DICPCG:  Solving for p, Initial residual = 0.000536189, Final residual = 2.6614e-05, No Iterations 4
DICPCG:  Solving for p, Initial residual = 8.714e-05, Final residual = 4.01917e-06, No Iterations 18
DICPCG:  Solving for p, Initial residual = 3.1563e-05, Final residual = 9.73125e-07, No Iterations 52
time step continuity errors : sum local = 2.35745e-10, global = 6.87573e-12, cumulative = 5.89583e-07
ExecutionTime = 1.48 s  ClockTime = 4 s

Time = 9.9

Courant Number mean: 0.0807673 max: 0.500341
smoothSolver:  Solving for Ux, Initial residual = 0.000989306, Final residual = 2.23936e-06, No Iterations 1
smoothSolver:  Solving for Uy, Initial residual = 0.000685802, Final residual = 1.46914e-06, No Iterations 1
DICPCG:  Solving for p, Initial residual = 0.0102172, Final residual = 0.000433269, No Iterations 4
DICPCG:  Solving for p, Initial residual = 0.00142239, Final residual = 6.64234e-05, No Iterations 8
DICPCG:  Solving for p, Initial residual = 0.000259864, Final residual = 1.1255e-05, No Iterations 27
time step continuity errors : sum local = 2.73048e-09, global = 2.57772e-10, cumulative = 5.89841e-07
DICPCG:  Solving for p, Initial residual = 0.000559442, Final residual = 2.55829e-05, No Iterations 4
DICPCG:  Solving for p, Initial residual = 8.94694e-05, Final residual = 4.28475e-06, No Iterations 19
DICPCG:  Solving for p, Initial residual = 2.59368e-05, Final residual = 9.92462e-07, No Iterations 44
time step continuity errors : sum local = 2.40787e-10, global = 9.45021e-12, cumulative = 5.89851e-07
ExecutionTime = 1.49 s  ClockTime = 4 s

Time = 9.95

Courant Number mean: 0.0807715 max: 0.500406
smoothSolver:  Solving for Ux, Initial residual = 0.00098832, Final residual = 2.18757e-06, No Iterations 1
smoothSolver:  Solving for Uy, Initial residual = 0.000685505, Final residual = 1.45829e-06, No Iterations 1
DICPCG:  Solving for p, Initial residual = 0.0100301, Final residual = 0.000494781, No Iterations 4
DICPCG:  Solving for p, Initial residual = 0.00166817, Final residual = 7.03776e-05, No Iterations 6
DICPCG:  Solving for p, Initial residual = 0.000265825, Final residual = 1.20716e-05, No Iterations 24
time step continuity errors : sum local = 2.91743e-09, global = 6.70423e-10, cumulative = 5.90521e-07
DICPCG:  Solving for p, Initial residual = 0.000520854, Final residual = 1.88359e-05, No Iterations 5
DICPCG:  Solving for p, Initial residual = 8.82214e-05, Final residual = 3.1568e-06, No Iterations 47
DICPCG:  Solving for p, Initial residual = 3.87285e-05, Final residual = 8.31113e-07, No Iterations 15
time step continuity errors : sum local = 2.00842e-10, global = -1.08668e-11, cumulative = 5.9051e-07
ExecutionTime = 1.49 s  ClockTime = 4 s

Time = 10

Courant Number mean: 0.080776 max: 0.500482
smoothSolver:  Solving for Ux, Initial residual = 0.000987989, Final residual = 2.15569e-06, No Iterations 1
smoothSolver:  Solving for Uy, Initial residual = 0.000686598, Final residual = 1.46265e-06, No Iterations 1
DICPCG:  Solving for p, Initial residual = 0.0088189, Final residual = 0.000421198, No Iterations 4
DICPCG:  Solving for p, Initial residual = 0.00142321, Final residual = 6.21092e-05, No Iterations 10
DICPCG:  Solving for p, Initial residual = 0.000228283, Final residual = 9.10184e-06, No Iterations 52
time step continuity errors : sum local = 2.19614e-09, global = -7.69276e-11, cumulative = 5.90433e-07
DICPCG:  Solving for p, Initial residual = 0.000468166, Final residual = 2.32386e-05, No Iterations 4
DICPCG:  Solving for p, Initial residual = 7.94237e-05, Final residual = 3.48857e-06, No Iterations 17
DICPCG:  Solving for p, Initial residual = 1.70448e-05, Final residual = 9.74088e-07, No Iterations 18
time step continuity errors : sum local = 2.34962e-10, global = 1.37461e-11, cumulative = 5.90447e-07
ExecutionTime = 1.51 s  ClockTime = 4 s

End

