/*---------------------------------------------------------------------------*\
  =========                 |
  \\      /  F ield         | OpenFOAM: The Open Source CFD Toolbox
   \\    /   O peration     | Website:  https://openfoam.org
    \\  /    A nd           | Version:  9
     \\/     M anipulation  |
\*---------------------------------------------------------------------------*/
Build  : 9-a0f1846504f2
Exec   : simpleFoam
Date   : Nov 16 2021
Time   : 15:48:13
Host   : "tw-Satellite-C45t-A"
PID    : 9437
I/O    : uncollated
Case   : /home/tw/OpenFOAM/tw-9/run/curso-cfd/03-airFoil2D
nProcs : 1
sigFpe : Enabling floating point exception trapping (FOAM_SIGFPE).
fileModificationChecking : Monitoring run-time modified files using timeStampMaster (fileModificationSkew 10)
allowSystemOperations : Allowing user-supplied system call operations

// * * * * * * * * * * * * * * * * * * * * * * * * * * * * * * * * * * * * * //
Create time

Create mesh for time = 0


SIMPLE: Convergence criteria found
        p: tolerance 1e-05
        U: tolerance 1e-05
        nuTilda: tolerance 1e-05

Reading field p

Reading field U

Reading/calculating face flux field phi

Selecting incompressible transport model Newtonian
Selecting turbulence model type RAS
Selecting RAS turbulence model SpalartAllmaras
Selecting patchDistMethod meshWave
RAS
{
    model           SpalartAllmaras;
    turbulence      on;
    printCoeffs     on;
    sigmaNut        0.66666;
    kappa           0.41;
    Cb1             0.1355;
    Cb2             0.622;
    Cw2             0.3;
    Cw3             2;
    Cv1             7.1;
    Cs              0.3;
}

No MRF models present

No fvModels present
No fvConstraints present

Starting time loop

Time = 0.5

smoothSolver:  Solving for Ux, Initial residual = 1, Final residual = 0.0167567, No Iterations 4
smoothSolver:  Solving for Uy, Initial residual = 1, Final residual = 0.0160634, No Iterations 4
GAMG:  Solving for p, Initial residual = 1, Final residual = 0.0969078, No Iterations 8
time step continuity errors : sum local = 0.000187732, global = -7.91238e-05, cumulative = -7.91238e-05
smoothSolver:  Solving for nuTilda, Initial residual = 1, Final residual = 0.0187601, No Iterations 2
ExecutionTime = 0.2 s  ClockTime = 0 s

Time = 1

smoothSolver:  Solving for Ux, Initial residual = 0.492993, Final residual = 0.0260676, No Iterations 4
smoothSolver:  Solving for Uy, Initial residual = 0.522541, Final residual = 0.0172503, No Iterations 4
GAMG:  Solving for p, Initial residual = 0.332723, Final residual = 0.0256356, No Iterations 5
time step continuity errors : sum local = 0.000290719, global = 8.00568e-05, cumulative = 9.32964e-07
smoothSolver:  Solving for nuTilda, Initial residual = 0.0728521, Final residual = 0.00716971, No Iterations 2
ExecutionTime = 0.24 s  ClockTime = 1 s

Time = 1.5

smoothSolver:  Solving for Ux, Initial residual = 0.200464, Final residual = 0.0115187, No Iterations 4
smoothSolver:  Solving for Uy, Initial residual = 0.120695, Final residual = 0.00483724, No Iterations 4
GAMG:  Solving for p, Initial residual = 0.424125, Final residual = 0.0363118, No Iterations 7
time step continuity errors : sum local = 0.000342358, global = 0.000134577, cumulative = 0.00013551
smoothSolver:  Solving for nuTilda, Initial residual = 0.0603157, Final residual = 0.00201099, No Iterations 4
ExecutionTime = 0.29 s  ClockTime = 1 s

Time = 2

smoothSolver:  Solving for Ux, Initial residual = 0.0525269, Final residual = 0.00257975, No Iterations 4
smoothSolver:  Solving for Uy, Initial residual = 0.0423343, Final residual = 0.00197076, No Iterations 4
GAMG:  Solving for p, Initial residual = 0.556714, Final residual = 0.0505789, No Iterations 6
time step continuity errors : sum local = 0.000222987, global = 7.91195e-05, cumulative = 0.000214629
smoothSolver:  Solving for nuTilda, Initial residual = 0.0634292, Final residual = 0.00219382, No Iterations 4
ExecutionTime = 0.33 s  ClockTime = 1 s

Time = 2.5

smoothSolver:  Solving for Ux, Initial residual = 0.138628, Final residual = 0.00680452, No Iterations 4
smoothSolver:  Solving for Uy, Initial residual = 0.137061, Final residual = 0.00495244, No Iterations 4
GAMG:  Solving for p, Initial residual = 0.378309, Final residual = 0.0227309, No Iterations 5
time step continuity errors : sum local = 0.000192053, global = -6.29856e-05, cumulative = 0.000151644
smoothSolver:  Solving for nuTilda, Initial residual = 0.0652379, Final residual = 0.00239515, No Iterations 4
ExecutionTime = 0.38 s  ClockTime = 1 s

Time = 3

smoothSolver:  Solving for Ux, Initial residual = 0.157072, Final residual = 0.00855363, No Iterations 4
smoothSolver:  Solving for Uy, Initial residual = 0.216004, Final residual = 0.00986429, No Iterations 4
GAMG:  Solving for p, Initial residual = 0.363143, Final residual = 0.0310047, No Iterations 7
time step continuity errors : sum local = 0.000226082, global = -7.89011e-05, cumulative = 7.27428e-05
smoothSolver:  Solving for nuTilda, Initial residual = 0.0664887, Final residual = 0.0023151, No Iterations 4
ExecutionTime = 0.43 s  ClockTime = 1 s

Time = 3.5

smoothSolver:  Solving for Ux, Initial residual = 0.0843148, Final residual = 0.00350039, No Iterations 4
smoothSolver:  Solving for Uy, Initial residual = 0.138977, Final residual = 0.00528589, No Iterations 4
GAMG:  Solving for p, Initial residual = 0.733203, Final residual = 0.0581617, No Iterations 6
time step continuity errors : sum local = 0.00019146, global = -4.98952e-05, cumulative = 2.28476e-05
smoothSolver:  Solving for nuTilda, Initial residual = 0.0677041, Final residual = 0.002459, No Iterations 4
ExecutionTime = 0.48 s  ClockTime = 1 s

Time = 4

smoothSolver:  Solving for Ux, Initial residual = 0.107218, Final residual = 0.00521332, No Iterations 4
smoothSolver:  Solving for Uy, Initial residual = 0.121341, Final residual = 0.00351964, No Iterations 4
GAMG:  Solving for p, Initial residual = 0.528693, Final residual = 0.0342132, No Iterations 4
time step continuity errors : sum local = 0.00016935, global = -1.78458e-05, cumulative = 5.00174e-06
smoothSolver:  Solving for nuTilda, Initial residual = 0.0745483, Final residual = 0.0030685, No Iterations 4
ExecutionTime = 0.52 s  ClockTime = 1 s

Time = 4.5

smoothSolver:  Solving for Ux, Initial residual = 0.0822638, Final residual = 0.00472467, No Iterations 4
smoothSolver:  Solving for Uy, Initial residual = 0.0735303, Final residual = 0.00290238, No Iterations 4
GAMG:  Solving for p, Initial residual = 0.46989, Final residual = 0.0408548, No Iterations 6
time step continuity errors : sum local = 0.000173375, global = -6.09234e-05, cumulative = -5.59216e-05
smoothSolver:  Solving for nuTilda, Initial residual = 0.0883511, Final residual = 0.00376197, No Iterations 4
ExecutionTime = 0.57 s  ClockTime = 1 s

Time = 5

smoothSolver:  Solving for Ux, Initial residual = 0.0432498, Final residual = 0.00257891, No Iterations 4
smoothSolver:  Solving for Uy, Initial residual = 0.0462497, Final residual = 0.00228126, No Iterations 4
GAMG:  Solving for p, Initial residual = 0.63988, Final residual = 0.0638279, No Iterations 5
time step continuity errors : sum local = 0.000173389, global = 6.25787e-05, cumulative = 6.65712e-06
smoothSolver:  Solving for nuTilda, Initial residual = 0.0716651, Final residual = 0.00298766, No Iterations 4
ExecutionTime = 0.61 s  ClockTime = 1 s

Time = 5.5

smoothSolver:  Solving for Ux, Initial residual = 0.0398445, Final residual = 0.00192264, No Iterations 4
smoothSolver:  Solving for Uy, Initial residual = 0.0589685, Final residual = 0.00276255, No Iterations 4
GAMG:  Solving for p, Initial residual = 0.484251, Final residual = 0.0311909, No Iterations 4
time step continuity errors : sum local = 0.000124664, global = 2.18385e-06, cumulative = 8.84097e-06
smoothSolver:  Solving for nuTilda, Initial residual = 0.0592514, Final residual = 0.00239237, No Iterations 4
ExecutionTime = 0.65 s  ClockTime = 1 s

Time = 6

smoothSolver:  Solving for Ux, Initial residual = 0.0468378, Final residual = 0.00231149, No Iterations 4
smoothSolver:  Solving for Uy, Initial residual = 0.062413, Final residual = 0.00282797, No Iterations 4
GAMG:  Solving for p, Initial residual = 0.40847, Final residual = 0.0246659, No Iterations 5
time step continuity errors : sum local = 9.51858e-05, global = -2.3959e-06, cumulative = 6.44507e-06
smoothSolver:  Solving for nuTilda, Initial residual = 0.0511117, Final residual = 0.00203407, No Iterations 4
ExecutionTime = 0.69 s  ClockTime = 1 s

Time = 6.5

smoothSolver:  Solving for Ux, Initial residual = 0.0392409, Final residual = 0.00174403, No Iterations 4
smoothSolver:  Solving for Uy, Initial residual = 0.0484397, Final residual = 0.00207652, No Iterations 4
GAMG:  Solving for p, Initial residual = 0.484769, Final residual = 0.0334633, No Iterations 5
time step continuity errors : sum local = 9.70606e-05, global = -9.57156e-06, cumulative = -3.12649e-06
smoothSolver:  Solving for nuTilda, Initial residual = 0.0449264, Final residual = 0.0017506, No Iterations 4
ExecutionTime = 0.75 s  ClockTime = 1 s

Time = 7

smoothSolver:  Solving for Ux, Initial residual = 0.0341496, Final residual = 0.00139136, No Iterations 4
smoothSolver:  Solving for Uy, Initial residual = 0.0424974, Final residual = 0.00123401, No Iterations 4
GAMG:  Solving for p, Initial residual = 0.676434, Final residual = 0.04599, No Iterations 4
time step continuity errors : sum local = 0.000103394, global = -7.24855e-06, cumulative = -1.0375e-05
smoothSolver:  Solving for nuTilda, Initial residual = 0.0394776, Final residual = 0.00153059, No Iterations 4
ExecutionTime = 0.79 s  ClockTime = 1 s

Time = 7.5

smoothSolver:  Solving for Ux, Initial residual = 0.0335294, Final residual = 0.00172166, No Iterations 4
smoothSolver:  Solving for Uy, Initial residual = 0.0391473, Final residual = 0.00128082, No Iterations 4
GAMG:  Solving for p, Initial residual = 0.621648, Final residual = 0.0555886, No Iterations 4
time step continuity errors : sum local = 0.000110393, global = -1.39997e-05, cumulative = -2.43747e-05
smoothSolver:  Solving for nuTilda, Initial residual = 0.034679, Final residual = 0.00131541, No Iterations 4
ExecutionTime = 0.82 s  ClockTime = 1 s

Time = 8

smoothSolver:  Solving for Ux, Initial residual = 0.0275464, Final residual = 0.00160205, No Iterations 4
smoothSolver:  Solving for Uy, Initial residual = 0.0338149, Final residual = 0.00151192, No Iterations 4
GAMG:  Solving for p, Initial residual = 0.496728, Final residual = 0.039565, No Iterations 4
time step continuity errors : sum local = 8.67459e-05, global = -2.11298e-05, cumulative = -4.55046e-05
smoothSolver:  Solving for nuTilda, Initial residual = 0.0314365, Final residual = 0.00113658, No Iterations 4
ExecutionTime = 0.87 s  ClockTime = 2 s

Time = 8.5

smoothSolver:  Solving for Ux, Initial residual = 0.0222266, Final residual = 0.00130781, No Iterations 4
smoothSolver:  Solving for Uy, Initial residual = 0.0307929, Final residual = 0.00165841, No Iterations 4
GAMG:  Solving for p, Initial residual = 0.445577, Final residual = 0.0322487, No Iterations 4
time step continuity errors : sum local = 8.37561e-05, global = -2.05032e-05, cumulative = -6.60078e-05
smoothSolver:  Solving for nuTilda, Initial residual = 0.0292652, Final residual = 0.00100936, No Iterations 4
ExecutionTime = 0.92 s  ClockTime = 2 s

Time = 9

smoothSolver:  Solving for Ux, Initial residual = 0.0230954, Final residual = 0.00114465, No Iterations 4
smoothSolver:  Solving for Uy, Initial residual = 0.0307861, Final residual = 0.00158437, No Iterations 4
GAMG:  Solving for p, Initial residual = 0.370754, Final residual = 0.0269393, No Iterations 4
time step continuity errors : sum local = 7.12346e-05, global = -1.77925e-05, cumulative = -8.38003e-05
smoothSolver:  Solving for nuTilda, Initial residual = 0.0274571, Final residual = 0.000918427, No Iterations 4
ExecutionTime = 0.96 s  ClockTime = 2 s

Time = 9.5

smoothSolver:  Solving for Ux, Initial residual = 0.0232039, Final residual = 0.00107758, No Iterations 4
smoothSolver:  Solving for Uy, Initial residual = 0.0287891, Final residual = 0.0012837, No Iterations 4
GAMG:  Solving for p, Initial residual = 0.366937, Final residual = 0.0284952, No Iterations 4
time step continuity errors : sum local = 6.92607e-05, global = -1.6201e-05, cumulative = -0.000100001
smoothSolver:  Solving for nuTilda, Initial residual = 0.0260528, Final residual = 0.00084557, No Iterations 4
ExecutionTime = 1 s  ClockTime = 2 s

Time = 10

smoothSolver:  Solving for Ux, Initial residual = 0.0193882, Final residual = 0.00083391, No Iterations 4
smoothSolver:  Solving for Uy, Initial residual = 0.0244986, Final residual = 0.000990721, No Iterations 4
GAMG:  Solving for p, Initial residual = 0.40389, Final residual = 0.027043, No Iterations 4
time step continuity errors : sum local = 6.01307e-05, global = -1.37861e-05, cumulative = -0.000113787
smoothSolver:  Solving for nuTilda, Initial residual = 0.0247051, Final residual = 0.000787059, No Iterations 4
ExecutionTime = 1.05 s  ClockTime = 2 s

Time = 10.5

smoothSolver:  Solving for Ux, Initial residual = 0.0182897, Final residual = 0.000857762, No Iterations 4
smoothSolver:  Solving for Uy, Initial residual = 0.0245513, Final residual = 0.000921541, No Iterations 4
GAMG:  Solving for p, Initial residual = 0.382299, Final residual = 0.0222736, No Iterations 4
time step continuity errors : sum local = 4.57114e-05, global = -1.26593e-05, cumulative = -0.000126447
smoothSolver:  Solving for nuTilda, Initial residual = 0.0234588, Final residual = 0.000725742, No Iterations 4
ExecutionTime = 1.09 s  ClockTime = 2 s

Time = 11

smoothSolver:  Solving for Ux, Initial residual = 0.0182493, Final residual = 0.000985151, No Iterations 4
smoothSolver:  Solving for Uy, Initial residual = 0.0243444, Final residual = 0.00102779, No Iterations 4
GAMG:  Solving for p, Initial residual = 0.3496, Final residual = 0.0233951, No Iterations 4
time step continuity errors : sum local = 4.77699e-05, global = -1.29276e-05, cumulative = -0.000139374
smoothSolver:  Solving for nuTilda, Initial residual = 0.0224013, Final residual = 0.000671737, No Iterations 4
ExecutionTime = 1.13 s  ClockTime = 2 s

Time = 11.5

smoothSolver:  Solving for Ux, Initial residual = 0.0160953, Final residual = 0.000925991, No Iterations 4
smoothSolver:  Solving for Uy, Initial residual = 0.0212314, Final residual = 0.00108842, No Iterations 4
GAMG:  Solving for p, Initial residual = 0.311663, Final residual = 0.021173, No Iterations 4
time step continuity errors : sum local = 4.60176e-05, global = -1.30993e-05, cumulative = -0.000152474
smoothSolver:  Solving for nuTilda, Initial residual = 0.0215332, Final residual = 0.000625555, No Iterations 4
ExecutionTime = 1.17 s  ClockTime = 2 s

Time = 12

smoothSolver:  Solving for Ux, Initial residual = 0.0150451, Final residual = 0.000788931, No Iterations 4
smoothSolver:  Solving for Uy, Initial residual = 0.0210134, Final residual = 0.00112818, No Iterations 4
GAMG:  Solving for p, Initial residual = 0.268955, Final residual = 0.0142278, No Iterations 4
time step continuity errors : sum local = 3.20906e-05, global = -9.01961e-06, cumulative = -0.000161493
smoothSolver:  Solving for nuTilda, Initial residual = 0.0206847, Final residual = 0.000587534, No Iterations 4
ExecutionTime = 1.22 s  ClockTime = 2 s

Time = 12.5

smoothSolver:  Solving for Ux, Initial residual = 0.0153167, Final residual = 0.000721894, No Iterations 4
smoothSolver:  Solving for Uy, Initial residual = 0.0211453, Final residual = 0.00105805, No Iterations 4
GAMG:  Solving for p, Initial residual = 0.250629, Final residual = 0.0142733, No Iterations 4
time step continuity errors : sum local = 3.19601e-05, global = -7.59611e-06, cumulative = -0.000169089
smoothSolver:  Solving for nuTilda, Initial residual = 0.0199236, Final residual = 0.000556579, No Iterations 4
ExecutionTime = 1.33 s  ClockTime = 2 s

Time = 13

smoothSolver:  Solving for Ux, Initial residual = 0.0145548, Final residual = 0.000641239, No Iterations 4
smoothSolver:  Solving for Uy, Initial residual = 0.019231, Final residual = 0.000884639, No Iterations 4
GAMG:  Solving for p, Initial residual = 0.248488, Final residual = 0.0182739, No Iterations 4
time step continuity errors : sum local = 3.87355e-05, global = -9.33909e-06, cumulative = -0.000178428
smoothSolver:  Solving for nuTilda, Initial residual = 0.019209, Final residual = 0.000528506, No Iterations 4
ExecutionTime = 1.36 s  ClockTime = 2 s

Time = 13.5

smoothSolver:  Solving for Ux, Initial residual = 0.0134741, Final residual = 0.00056847, No Iterations 4
smoothSolver:  Solving for Uy, Initial residual = 0.0182021, Final residual = 0.000766925, No Iterations 4
GAMG:  Solving for p, Initial residual = 0.249097, Final residual = 0.0172563, No Iterations 4
time step continuity errors : sum local = 3.41823e-05, global = -7.90214e-06, cumulative = -0.000186331
smoothSolver:  Solving for nuTilda, Initial residual = 0.0185268, Final residual = 0.000500541, No Iterations 4
ExecutionTime = 1.41 s  ClockTime = 2 s

Time = 14

smoothSolver:  Solving for Ux, Initial residual = 0.0132016, Final residual = 0.000623556, No Iterations 4
smoothSolver:  Solving for Uy, Initial residual = 0.0183392, Final residual = 0.000780539, No Iterations 4
GAMG:  Solving for p, Initial residual = 0.235898, Final residual = 0.013424, No Iterations 4
time step continuity errors : sum local = 2.58453e-05, global = -6.09458e-06, cumulative = -0.000192425
smoothSolver:  Solving for nuTilda, Initial residual = 0.0179236, Final residual = 0.000476325, No Iterations 4
ExecutionTime = 1.45 s  ClockTime = 2 s

Time = 14.5

smoothSolver:  Solving for Ux, Initial residual = 0.0127783, Final residual = 0.000642469, No Iterations 4
smoothSolver:  Solving for Uy, Initial residual = 0.0175577, Final residual = 0.000826876, No Iterations 4
GAMG:  Solving for p, Initial residual = 0.208676, Final residual = 0.0140596, No Iterations 4
time step continuity errors : sum local = 2.75807e-05, global = -7.55797e-06, cumulative = -0.000199983
smoothSolver:  Solving for nuTilda, Initial residual = 0.0173586, Final residual = 0.000455857, No Iterations 4
ExecutionTime = 1.49 s  ClockTime = 2 s

Time = 15

smoothSolver:  Solving for Ux, Initial residual = 0.0121881, Final residual = 0.000596027, No Iterations 4
smoothSolver:  Solving for Uy, Initial residual = 0.0165111, Final residual = 0.000853485, No Iterations 4
GAMG:  Solving for p, Initial residual = 0.179095, Final residual = 0.0110873, No Iterations 4
time step continuity errors : sum local = 2.31278e-05, global = -6.74583e-06, cumulative = -0.000206729
smoothSolver:  Solving for nuTilda, Initial residual = 0.0168374, Final residual = 0.000439222, No Iterations 4
ExecutionTime = 1.54 s  ClockTime = 2 s

Time = 15.5

smoothSolver:  Solving for Ux, Initial residual = 0.0117504, Final residual = 0.000522387, No Iterations 4
smoothSolver:  Solving for Uy, Initial residual = 0.0163164, Final residual = 0.000865289, No Iterations 4
GAMG:  Solving for p, Initial residual = 0.161425, Final residual = 0.00845222, No Iterations 4
time step continuity errors : sum local = 1.84422e-05, global = -4.72469e-06, cumulative = -0.000211454
smoothSolver:  Solving for nuTilda, Initial residual = 0.0164055, Final residual = 0.000427026, No Iterations 4
ExecutionTime = 1.58 s  ClockTime = 3 s

Time = 16

smoothSolver:  Solving for Ux, Initial residual = 0.0115861, Final residual = 0.000475332, No Iterations 4
smoothSolver:  Solving for Uy, Initial residual = 0.0159508, Final residual = 0.000808636, No Iterations 4
GAMG:  Solving for p, Initial residual = 0.153356, Final residual = 0.00873771, No Iterations 4
time step continuity errors : sum local = 1.9128e-05, global = -4.41402e-06, cumulative = -0.000215868
smoothSolver:  Solving for nuTilda, Initial residual = 0.0160225, Final residual = 0.000417909, No Iterations 4
ExecutionTime = 1.62 s  ClockTime = 3 s

Time = 16.5

smoothSolver:  Solving for Ux, Initial residual = 0.0112344, Final residual = 0.000431469, No Iterations 4
smoothSolver:  Solving for Uy, Initial residual = 0.0152717, Final residual = 0.000725316, No Iterations 4
GAMG:  Solving for p, Initial residual = 0.152075, Final residual = 0.0103501, No Iterations 4
time step continuity errors : sum local = 2.16973e-05, global = -5.22732e-06, cumulative = -0.000221095
smoothSolver:  Solving for nuTilda, Initial residual = 0.0156817, Final residual = 0.000408744, No Iterations 4
ExecutionTime = 1.66 s  ClockTime = 3 s

Time = 17

smoothSolver:  Solving for Ux, Initial residual = 0.0109185, Final residual = 0.000431672, No Iterations 4
smoothSolver:  Solving for Uy, Initial residual = 0.0149103, Final residual = 0.000661372, No Iterations 4
GAMG:  Solving for p, Initial residual = 0.149201, Final residual = 0.0101144, No Iterations 4
time step continuity errors : sum local = 2.01352e-05, global = -4.62339e-06, cumulative = -0.000225718
smoothSolver:  Solving for nuTilda, Initial residual = 0.0153491, Final residual = 0.000400731, No Iterations 4
ExecutionTime = 1.7 s  ClockTime = 3 s

Time = 17.5

smoothSolver:  Solving for Ux, Initial residual = 0.0106777, Final residual = 0.00044981, No Iterations 4
smoothSolver:  Solving for Uy, Initial residual = 0.0150256, Final residual = 0.000656586, No Iterations 4
GAMG:  Solving for p, Initial residual = 0.140328, Final residual = 0.00981282, No Iterations 4
time step continuity errors : sum local = 1.90767e-05, global = -4.12251e-06, cumulative = -0.000229841
smoothSolver:  Solving for nuTilda, Initial residual = 0.0150711, Final residual = 0.000395618, No Iterations 4
ExecutionTime = 1.74 s  ClockTime = 3 s

Time = 18

smoothSolver:  Solving for Ux, Initial residual = 0.0104388, Final residual = 0.000450508, No Iterations 4
smoothSolver:  Solving for Uy, Initial residual = 0.0148304, Final residual = 0.000686364, No Iterations 4
GAMG:  Solving for p, Initial residual = 0.125894, Final residual = 0.00986963, No Iterations 4
time step continuity errors : sum local = 1.96078e-05, global = -4.88288e-06, cumulative = -0.000234724
smoothSolver:  Solving for nuTilda, Initial residual = 0.0148307, Final residual = 0.000392179, No Iterations 4
ExecutionTime = 1.79 s  ClockTime = 3 s

Time = 18.5

smoothSolver:  Solving for Ux, Initial residual = 0.0101313, Final residual = 0.000419971, No Iterations 4
smoothSolver:  Solving for Uy, Initial residual = 0.0143582, Final residual = 0.000701383, No Iterations 4
GAMG:  Solving for p, Initial residual = 0.111873, Final residual = 0.0072215, No Iterations 4
time step continuity errors : sum local = 1.5174e-05, global = -3.51225e-06, cumulative = -0.000238236
smoothSolver:  Solving for nuTilda, Initial residual = 0.0146134, Final residual = 0.000390262, No Iterations 4
ExecutionTime = 1.83 s  ClockTime = 3 s

Time = 19

smoothSolver:  Solving for Ux, Initial residual = 0.00990636, Final residual = 0.000385928, No Iterations 4
smoothSolver:  Solving for Uy, Initial residual = 0.0141057, Final residual = 0.000709624, No Iterations 4
GAMG:  Solving for p, Initial residual = 0.104543, Final residual = 0.00613549, No Iterations 4
time step continuity errors : sum local = 1.34914e-05, global = -2.63627e-06, cumulative = -0.000240872
smoothSolver:  Solving for nuTilda, Initial residual = 0.0144132, Final residual = 0.00039067, No Iterations 4
ExecutionTime = 1.88 s  ClockTime = 3 s

Time = 19.5

smoothSolver:  Solving for Ux, Initial residual = 0.00975193, Final residual = 0.000365657, No Iterations 4
smoothSolver:  Solving for Uy, Initial residual = 0.0138224, Final residual = 0.000689745, No Iterations 4
GAMG:  Solving for p, Initial residual = 0.101217, Final residual = 0.0067585, No Iterations 4
time step continuity errors : sum local = 1.50529e-05, global = -2.79515e-06, cumulative = -0.000243667
smoothSolver:  Solving for nuTilda, Initial residual = 0.014222, Final residual = 0.000392376, No Iterations 4
ExecutionTime = 1.92 s  ClockTime = 3 s

Time = 20

smoothSolver:  Solving for Ux, Initial residual = 0.00950021, Final residual = 0.000352854, No Iterations 4
smoothSolver:  Solving for Uy, Initial residual = 0.0135403, Final residual = 0.000644292, No Iterations 4
GAMG:  Solving for p, Initial residual = 0.0991384, Final residual = 0.00724473, No Iterations 4
time step continuity errors : sum local = 1.57685e-05, global = -2.90213e-06, cumulative = -0.00024657
smoothSolver:  Solving for nuTilda, Initial residual = 0.014051, Final residual = 0.000393021, No Iterations 4
ExecutionTime = 1.97 s  ClockTime = 3 s

Time = 20.5

smoothSolver:  Solving for Ux, Initial residual = 0.00925, Final residual = 0.000357423, No Iterations 4
smoothSolver:  Solving for Uy, Initial residual = 0.0133707, Final residual = 0.000608466, No Iterations 4
GAMG:  Solving for p, Initial residual = 0.0971766, Final residual = 0.00659449, No Iterations 4
time step continuity errors : sum local = 1.38431e-05, global = -2.49971e-06, cumulative = -0.000249069
smoothSolver:  Solving for nuTilda, Initial residual = 0.0138851, Final residual = 0.000393256, No Iterations 4
ExecutionTime = 2.01 s  ClockTime = 3 s

Time = 21

smoothSolver:  Solving for Ux, Initial residual = 0.00905234, Final residual = 0.000362589, No Iterations 4
smoothSolver:  Solving for Uy, Initial residual = 0.0134351, Final residual = 0.000609051, No Iterations 4
GAMG:  Solving for p, Initial residual = 0.0929841, Final residual = 0.00593879, No Iterations 4
time step continuity errors : sum local = 1.2267e-05, global = -2.31393e-06, cumulative = -0.000251383
smoothSolver:  Solving for nuTilda, Initial residual = 0.0137345, Final residual = 0.000393996, No Iterations 4
ExecutionTime = 2.05 s  ClockTime = 3 s

Time = 21.5

smoothSolver:  Solving for Ux, Initial residual = 0.00889792, Final residual = 0.000358993, No Iterations 4
smoothSolver:  Solving for Uy, Initial residual = 0.0133201, Final residual = 0.000620242, No Iterations 4
GAMG:  Solving for p, Initial residual = 0.0870832, Final residual = 0.00592087, No Iterations 4
time step continuity errors : sum local = 1.24482e-05, global = -2.45736e-06, cumulative = -0.000253841
smoothSolver:  Solving for nuTilda, Initial residual = 0.0135941, Final residual = 0.000395174, No Iterations 4
ExecutionTime = 2.09 s  ClockTime = 3 s

Time = 22

smoothSolver:  Solving for Ux, Initial residual = 0.00872482, Final residual = 0.000347045, No Iterations 4
smoothSolver:  Solving for Uy, Initial residual = 0.0130822, Final residual = 0.000623292, No Iterations 4
GAMG:  Solving for p, Initial residual = 0.0813372, Final residual = 0.00556874, No Iterations 4
time step continuity errors : sum local = 1.2219e-05, global = -2.22937e-06, cumulative = -0.00025607
smoothSolver:  Solving for nuTilda, Initial residual = 0.013475, Final residual = 0.000396686, No Iterations 4
ExecutionTime = 2.14 s  ClockTime = 3 s

Time = 22.5

smoothSolver:  Solving for Ux, Initial residual = 0.00855937, Final residual = 0.000334121, No Iterations 4
smoothSolver:  Solving for Uy, Initial residual = 0.0129381, Final residual = 0.000618686, No Iterations 4
GAMG:  Solving for p, Initial residual = 0.076934, Final residual = 0.00510288, No Iterations 4
time step continuity errors : sum local = 1.16344e-05, global = -1.33099e-06, cumulative = -0.000257401
smoothSolver:  Solving for nuTilda, Initial residual = 0.0133526, Final residual = 0.000397689, No Iterations 4
ExecutionTime = 2.18 s  ClockTime = 3 s

Time = 23

smoothSolver:  Solving for Ux, Initial residual = 0.00838863, Final residual = 0.000325962, No Iterations 4
smoothSolver:  Solving for Uy, Initial residual = 0.0127342, Final residual = 0.0006005, No Iterations 4
GAMG:  Solving for p, Initial residual = 0.074452, Final residual = 0.00496862, No Iterations 4
time step continuity errors : sum local = 1.14784e-05, global = -6.29276e-07, cumulative = -0.00025803
smoothSolver:  Solving for nuTilda, Initial residual = 0.0132384, Final residual = 0.000398642, No Iterations 4
ExecutionTime = 2.23 s  ClockTime = 4 s

Time = 23.5

smoothSolver:  Solving for Ux, Initial residual = 0.00818706, Final residual = 0.000319624, No Iterations 4
smoothSolver:  Solving for Uy, Initial residual = 0.0124707, Final residual = 0.000574782, No Iterations 4
GAMG:  Solving for p, Initial residual = 0.0727917, Final residual = 0.00502527, No Iterations 4
time step continuity errors : sum local = 1.1504e-05, global = -1.28591e-07, cumulative = -0.000258159
smoothSolver:  Solving for nuTilda, Initial residual = 0.0131534, Final residual = 0.000400116, No Iterations 4
ExecutionTime = 2.28 s  ClockTime = 4 s

Time = 24

smoothSolver:  Solving for Ux, Initial residual = 0.00802141, Final residual = 0.000319327, No Iterations 4
smoothSolver:  Solving for Uy, Initial residual = 0.0122764, Final residual = 0.000555889, No Iterations 4
GAMG:  Solving for p, Initial residual = 0.0715963, Final residual = 0.00486769, No Iterations 4
time step continuity errors : sum local = 1.09317e-05, global = 1.10997e-07, cumulative = -0.000258048
smoothSolver:  Solving for nuTilda, Initial residual = 0.0130521, Final residual = 0.000400525, No Iterations 4
ExecutionTime = 2.32 s  ClockTime = 4 s

Time = 24.5

smoothSolver:  Solving for Ux, Initial residual = 0.00792019, Final residual = 0.000321852, No Iterations 4
smoothSolver:  Solving for Uy, Initial residual = 0.0122105, Final residual = 0.000553381, No Iterations 4
GAMG:  Solving for p, Initial residual = 0.069743, Final residual = 0.0047094, No Iterations 4
time step continuity errors : sum local = 1.04585e-05, global = -2.49769e-07, cumulative = -0.000258298
smoothSolver:  Solving for nuTilda, Initial residual = 0.0129627, Final residual = 0.000399815, No Iterations 4
ExecutionTime = 2.36 s  ClockTime = 4 s

Time = 25

smoothSolver:  Solving for Ux, Initial residual = 0.00783636, Final residual = 0.000321796, No Iterations 4
smoothSolver:  Solving for Uy, Initial residual = 0.0121786, Final residual = 0.000558113, No Iterations 4
GAMG:  Solving for p, Initial residual = 0.067213, Final residual = 0.00486784, No Iterations 4
time step continuity errors : sum local = 1.09023e-05, global = -1.41784e-06, cumulative = -0.000259715
smoothSolver:  Solving for nuTilda, Initial residual = 0.0128861, Final residual = 0.000400341, No Iterations 4
ExecutionTime = 2.47 s  ClockTime = 4 s

Time = 25.5

smoothSolver:  Solving for Ux, Initial residual = 0.00774677, Final residual = 0.00031796, No Iterations 4
smoothSolver:  Solving for Uy, Initial residual = 0.0121216, Final residual = 0.000560289, No Iterations 4
GAMG:  Solving for p, Initial residual = 0.0649754, Final residual = 0.00456846, No Iterations 4
time step continuity errors : sum local = 1.05177e-05, global = -1.74746e-06, cumulative = -0.000261463
smoothSolver:  Solving for nuTilda, Initial residual = 0.0128142, Final residual = 0.000399847, No Iterations 4
ExecutionTime = 2.52 s  ClockTime = 4 s

Time = 26

smoothSolver:  Solving for Ux, Initial residual = 0.00765686, Final residual = 0.000313966, No Iterations 4
smoothSolver:  Solving for Uy, Initial residual = 0.0120731, Final residual = 0.000556571, No Iterations 4
GAMG:  Solving for p, Initial residual = 0.0620675, Final residual = 0.00418692, No Iterations 4
time step continuity errors : sum local = 9.92032e-06, global = -1.35392e-06, cumulative = -0.000262817
smoothSolver:  Solving for nuTilda, Initial residual = 0.012723, Final residual = 0.000397987, No Iterations 4
ExecutionTime = 2.56 s  ClockTime = 4 s

Time = 26.5

smoothSolver:  Solving for Ux, Initial residual = 0.00756938, Final residual = 0.000311879, No Iterations 4
smoothSolver:  Solving for Uy, Initial residual = 0.0120051, Final residual = 0.000548154, No Iterations 4
GAMG:  Solving for p, Initial residual = 0.0595307, Final residual = 0.00402866, No Iterations 4
time step continuity errors : sum local = 9.69639e-06, global = -1.80868e-07, cumulative = -0.000262998
smoothSolver:  Solving for nuTilda, Initial residual = 0.0126542, Final residual = 0.000396525, No Iterations 4
ExecutionTime = 2.6 s  ClockTime = 4 s

Time = 27

smoothSolver:  Solving for Ux, Initial residual = 0.00747869, Final residual = 0.000310087, No Iterations 4
smoothSolver:  Solving for Uy, Initial residual = 0.0118969, Final residual = 0.000539851, No Iterations 4
GAMG:  Solving for p, Initial residual = 0.0578598, Final residual = 0.00415082, No Iterations 4
time step continuity errors : sum local = 9.99738e-06, global = 9.86294e-07, cumulative = -0.000262011
smoothSolver:  Solving for nuTilda, Initial residual = 0.0125694, Final residual = 0.000394801, No Iterations 4
ExecutionTime = 2.64 s  ClockTime = 4 s

Time = 27.5

smoothSolver:  Solving for Ux, Initial residual = 0.00738022, Final residual = 0.000308743, No Iterations 4
smoothSolver:  Solving for Uy, Initial residual = 0.0118038, Final residual = 0.000533844, No Iterations 4
GAMG:  Solving for p, Initial residual = 0.0574607, Final residual = 0.00432344, No Iterations 4
time step continuity errors : sum local = 1.03341e-05, global = 1.99067e-06, cumulative = -0.000260021
smoothSolver:  Solving for nuTilda, Initial residual = 0.0124829, Final residual = 0.000391195, No Iterations 4
ExecutionTime = 2.69 s  ClockTime = 4 s

Time = 28

smoothSolver:  Solving for Ux, Initial residual = 0.00730888, Final residual = 0.000308534, No Iterations 4
smoothSolver:  Solving for Uy, Initial residual = 0.0117768, Final residual = 0.000534886, No Iterations 4
GAMG:  Solving for p, Initial residual = 0.0572348, Final residual = 0.00448064, No Iterations 4
time step continuity errors : sum local = 1.06416e-05, global = 2.37092e-06, cumulative = -0.00025765
smoothSolver:  Solving for nuTilda, Initial residual = 0.0123852, Final residual = 0.000387795, No Iterations 4
ExecutionTime = 2.73 s  ClockTime = 4 s

Time = 28.5

smoothSolver:  Solving for Ux, Initial residual = 0.00725382, Final residual = 0.000309124, No Iterations 4
smoothSolver:  Solving for Uy, Initial residual = 0.0118053, Final residual = 0.000541137, No Iterations 4
GAMG:  Solving for p, Initial residual = 0.0569622, Final residual = 0.00466015, No Iterations 4
time step continuity errors : sum local = 1.1098e-05, global = 2.5981e-06, cumulative = -0.000255052
smoothSolver:  Solving for nuTilda, Initial residual = 0.012307, Final residual = 0.000384897, No Iterations 4
ExecutionTime = 2.76 s  ClockTime = 4 s

Time = 29

smoothSolver:  Solving for Ux, Initial residual = 0.00722307, Final residual = 0.000310598, No Iterations 4
smoothSolver:  Solving for Uy, Initial residual = 0.0118893, Final residual = 0.000551644, No Iterations 4
GAMG:  Solving for p, Initial residual = 0.0557278, Final residual = 0.00461916, No Iterations 4
time step continuity errors : sum local = 1.11615e-05, global = 2.21334e-06, cumulative = -0.000252838
smoothSolver:  Solving for nuTilda, Initial residual = 0.0122171, Final residual = 0.000380106, No Iterations 4
ExecutionTime = 2.8 s  ClockTime = 4 s

Time = 29.5

smoothSolver:  Solving for Ux, Initial residual = 0.00721432, Final residual = 0.000313071, No Iterations 4
smoothSolver:  Solving for Uy, Initial residual = 0.0119982, Final residual = 0.000560586, No Iterations 4
GAMG:  Solving for p, Initial residual = 0.0542294, Final residual = 0.00422674, No Iterations 4
time step continuity errors : sum local = 1.04237e-05, global = 1.42657e-06, cumulative = -0.000251412
smoothSolver:  Solving for nuTilda, Initial residual = 0.0121131, Final residual = 0.00037538, No Iterations 4
ExecutionTime = 2.85 s  ClockTime = 4 s

Time = 30

smoothSolver:  Solving for Ux, Initial residual = 0.00720629, Final residual = 0.000315823, No Iterations 4
smoothSolver:  Solving for Uy, Initial residual = 0.0120775, Final residual = 0.000565743, No Iterations 4
GAMG:  Solving for p, Initial residual = 0.0534122, Final residual = 0.00397266, No Iterations 4
time step continuity errors : sum local = 9.98535e-06, global = 1.07118e-06, cumulative = -0.000250341
smoothSolver:  Solving for nuTilda, Initial residual = 0.0120056, Final residual = 0.000370373, No Iterations 4
ExecutionTime = 2.89 s  ClockTime = 5 s

Time = 30.5

smoothSolver:  Solving for Ux, Initial residual = 0.00718183, Final residual = 0.000317752, No Iterations 4
smoothSolver:  Solving for Uy, Initial residual = 0.0120843, Final residual = 0.000565007, No Iterations 4
GAMG:  Solving for p, Initial residual = 0.0532995, Final residual = 0.00419172, No Iterations 4
time step continuity errors : sum local = 1.06614e-05, global = 1.93881e-06, cumulative = -0.000248402
smoothSolver:  Solving for nuTilda, Initial residual = 0.0118821, Final residual = 0.000363765, No Iterations 4
ExecutionTime = 2.94 s  ClockTime = 5 s

Time = 31

smoothSolver:  Solving for Ux, Initial residual = 0.0071412, Final residual = 0.000318823, No Iterations 4
smoothSolver:  Solving for Uy, Initial residual = 0.0120519, Final residual = 0.000562605, No Iterations 4
GAMG:  Solving for p, Initial residual = 0.0531084, Final residual = 0.00459269, No Iterations 4
time step continuity errors : sum local = 1.17139e-05, global = 2.90028e-06, cumulative = -0.000245501
smoothSolver:  Solving for nuTilda, Initial residual = 0.0117645, Final residual = 0.000358138, No Iterations 4
ExecutionTime = 2.99 s  ClockTime = 5 s

Time = 31.5

smoothSolver:  Solving for Ux, Initial residual = 0.00710375, Final residual = 0.000320388, No Iterations 4
smoothSolver:  Solving for Uy, Initial residual = 0.012024, Final residual = 0.000562568, No Iterations 4
GAMG:  Solving for p, Initial residual = 0.0541074, Final residual = 0.00471802, No Iterations 4
time step continuity errors : sum local = 1.20318e-05, global = 3.45078e-06, cumulative = -0.000242051
smoothSolver:  Solving for nuTilda, Initial residual = 0.0116592, Final residual = 0.000352568, No Iterations 4
ExecutionTime = 3.03 s  ClockTime = 5 s

Time = 32

smoothSolver:  Solving for Ux, Initial residual = 0.00707636, Final residual = 0.000323392, No Iterations 4
smoothSolver:  Solving for Uy, Initial residual = 0.0120617, Final residual = 0.000567771, No Iterations 4
GAMG:  Solving for p, Initial residual = 0.054354, Final residual = 0.00475649, No Iterations 4
time step continuity errors : sum local = 1.21573e-05, global = 3.7651e-06, cumulative = -0.000238286
smoothSolver:  Solving for nuTilda, Initial residual = 0.0115439, Final residual = 0.000353584, No Iterations 4
ExecutionTime = 3.07 s  ClockTime = 5 s

Time = 32.5

smoothSolver:  Solving for Ux, Initial residual = 0.00706679, Final residual = 0.000328129, No Iterations 4
smoothSolver:  Solving for Uy, Initial residual = 0.0121235, Final residual = 0.000577321, No Iterations 4
GAMG:  Solving for p, Initial residual = 0.0540937, Final residual = 0.0047702, No Iterations 4
time step continuity errors : sum local = 1.22795e-05, global = 3.89273e-06, cumulative = -0.000234393
smoothSolver:  Solving for nuTilda, Initial residual = 0.0114839, Final residual = 0.000357771, No Iterations 4
ExecutionTime = 3.12 s  ClockTime = 5 s

Time = 33

smoothSolver:  Solving for Ux, Initial residual = 0.00708455, Final residual = 0.00033471, No Iterations 4
smoothSolver:  Solving for Uy, Initial residual = 0.0122335, Final residual = 0.000589125, No Iterations 4
GAMG:  Solving for p, Initial residual = 0.0541112, Final residual = 0.00468588, No Iterations 4
time step continuity errors : sum local = 1.2202e-05, global = 3.75611e-06, cumulative = -0.000230637
smoothSolver:  Solving for nuTilda, Initial residual = 0.0114338, Final residual = 0.000365274, No Iterations 4
ExecutionTime = 3.16 s  ClockTime = 5 s

Time = 33.5

smoothSolver:  Solving for Ux, Initial residual = 0.0071091, Final residual = 0.000342392, No Iterations 4
smoothSolver:  Solving for Uy, Initial residual = 0.0123169, Final residual = 0.000600339, No Iterations 4
GAMG:  Solving for p, Initial residual = 0.0538867, Final residual = 0.00458211, No Iterations 4
time step continuity errors : sum local = 1.20966e-05, global = 3.53485e-06, cumulative = -0.000227102
smoothSolver:  Solving for nuTilda, Initial residual = 0.0114041, Final residual = 0.000376275, No Iterations 4
ExecutionTime = 3.21 s  ClockTime = 5 s

Time = 34

smoothSolver:  Solving for Ux, Initial residual = 0.0071343, Final residual = 0.00035054, No Iterations 4
smoothSolver:  Solving for Uy, Initial residual = 0.0124105, Final residual = 0.000611037, No Iterations 4
GAMG:  Solving for p, Initial residual = 0.0538875, Final residual = 0.00456257, No Iterations 4
time step continuity errors : sum local = 1.21913e-05, global = 3.32674e-06, cumulative = -0.000223775
smoothSolver:  Solving for nuTilda, Initial residual = 0.0114193, Final residual = 0.000392361, No Iterations 4
ExecutionTime = 3.25 s  ClockTime = 5 s

Time = 34.5

smoothSolver:  Solving for Ux, Initial residual = 0.00716485, Final residual = 0.000359109, No Iterations 4
smoothSolver:  Solving for Uy, Initial residual = 0.012493, Final residual = 0.000622321, No Iterations 4
GAMG:  Solving for p, Initial residual = 0.0543434, Final residual = 0.00464877, No Iterations 4
time step continuity errors : sum local = 1.25157e-05, global = 3.16646e-06, cumulative = -0.000220609
smoothSolver:  Solving for nuTilda, Initial residual = 0.011443, Final residual = 0.000409641, No Iterations 4
ExecutionTime = 3.3 s  ClockTime = 5 s

Time = 35

smoothSolver:  Solving for Ux, Initial residual = 0.00720492, Final residual = 0.000367967, No Iterations 4
smoothSolver:  Solving for Uy, Initial residual = 0.0125823, Final residual = 0.000636766, No Iterations 4
GAMG:  Solving for p, Initial residual = 0.0549707, Final residual = 0.00471866, No Iterations 4
time step continuity errors : sum local = 1.27502e-05, global = 3.20614e-06, cumulative = -0.000217403
smoothSolver:  Solving for nuTilda, Initial residual = 0.011521, Final residual = 0.000428952, No Iterations 4
ExecutionTime = 3.34 s  ClockTime = 5 s

Time = 35.5

smoothSolver:  Solving for Ux, Initial residual = 0.00726551, Final residual = 0.000377869, No Iterations 4
smoothSolver:  Solving for Uy, Initial residual = 0.0127337, Final residual = 0.000657135, No Iterations 4
GAMG:  Solving for p, Initial residual = 0.0556677, Final residual = 0.0047289, No Iterations 4
time step continuity errors : sum local = 1.28035e-05, global = 3.29352e-06, cumulative = -0.000214109
smoothSolver:  Solving for nuTilda, Initial residual = 0.0116021, Final residual = 0.000447449, No Iterations 4
ExecutionTime = 3.38 s  ClockTime = 5 s

Time = 36

smoothSolver:  Solving for Ux, Initial residual = 0.00735853, Final residual = 0.000389511, No Iterations 4
smoothSolver:  Solving for Uy, Initial residual = 0.0129407, Final residual = 0.000683839, No Iterations 4
GAMG:  Solving for p, Initial residual = 0.0564444, Final residual = 0.004758, No Iterations 4
time step continuity errors : sum local = 1.29018e-05, global = 3.44715e-06, cumulative = -0.000210662
smoothSolver:  Solving for nuTilda, Initial residual = 0.0116868, Final residual = 0.000467057, No Iterations 4
ExecutionTime = 3.43 s  ClockTime = 5 s

Time = 36.5

smoothSolver:  Solving for Ux, Initial residual = 0.00748633, Final residual = 0.000402806, No Iterations 4
smoothSolver:  Solving for Uy, Initial residual = 0.0131989, Final residual = 0.000716588, No Iterations 4
GAMG:  Solving for p, Initial residual = 0.0567734, Final residual = 0.00483965, No Iterations 4
time step continuity errors : sum local = 1.3169e-05, global = 3.73269e-06, cumulative = -0.000206929
smoothSolver:  Solving for nuTilda, Initial residual = 0.011791, Final residual = 0.00048605, No Iterations 4
ExecutionTime = 3.47 s  ClockTime = 5 s

Time = 37

smoothSolver:  Solving for Ux, Initial residual = 0.00764621, Final residual = 0.000417663, No Iterations 4
smoothSolver:  Solving for Uy, Initial residual = 0.0134806, Final residual = 0.000753672, No Iterations 4
GAMG:  Solving for p, Initial residual = 0.0571866, Final residual = 0.00496922, No Iterations 4
time step continuity errors : sum local = 1.35813e-05, global = 4.19596e-06, cumulative = -0.000202733
smoothSolver:  Solving for nuTilda, Initial residual = 0.0119009, Final residual = 0.000499225, No Iterations 4
ExecutionTime = 3.51 s  ClockTime = 5 s

Time = 37.5

smoothSolver:  Solving for Ux, Initial residual = 0.00782913, Final residual = 0.000433088, No Iterations 4
smoothSolver:  Solving for Uy, Initial residual = 0.0138276, Final residual = 0.000794544, No Iterations 4
GAMG:  Solving for p, Initial residual = 0.0575436, Final residual = 0.0049462, No Iterations 4
time step continuity errors : sum local = 1.35669e-05, global = 4.32049e-06, cumulative = -0.000198413
smoothSolver:  Solving for nuTilda, Initial residual = 0.0120564, Final residual = 0.000511304, No Iterations 4
ExecutionTime = 3.61 s  ClockTime = 6 s

Time = 38

smoothSolver:  Solving for Ux, Initial residual = 0.00803079, Final residual = 0.000448946, No Iterations 4
smoothSolver:  Solving for Uy, Initial residual = 0.0142375, Final residual = 0.000838478, No Iterations 4
GAMG:  Solving for p, Initial residual = 0.0579457, Final residual = 0.00482297, No Iterations 4
time step continuity errors : sum local = 1.32516e-05, global = 4.10483e-06, cumulative = -0.000194308
smoothSolver:  Solving for nuTilda, Initial residual = 0.0122426, Final residual = 0.000519888, No Iterations 4
ExecutionTime = 3.66 s  ClockTime = 6 s

Time = 38.5

smoothSolver:  Solving for Ux, Initial residual = 0.00825589, Final residual = 0.000464386, No Iterations 4
smoothSolver:  Solving for Uy, Initial residual = 0.0146905, Final residual = 0.000884048, No Iterations 4
GAMG:  Solving for p, Initial residual = 0.0590406, Final residual = 0.00475145, No Iterations 4
time step continuity errors : sum local = 1.30391e-05, global = 3.74461e-06, cumulative = -0.000190563
smoothSolver:  Solving for nuTilda, Initial residual = 0.0124682, Final residual = 0.00052605, No Iterations 4
ExecutionTime = 3.7 s  ClockTime = 6 s

Time = 39

smoothSolver:  Solving for Ux, Initial residual = 0.00850411, Final residual = 0.000479627, No Iterations 4
smoothSolver:  Solving for Uy, Initial residual = 0.0152112, Final residual = 0.000931636, No Iterations 4
GAMG:  Solving for p, Initial residual = 0.0602987, Final residual = 0.00482888, No Iterations 4
time step continuity errors : sum local = 1.31937e-05, global = 3.65515e-06, cumulative = -0.000186908
smoothSolver:  Solving for nuTilda, Initial residual = 0.0126923, Final residual = 0.000530026, No Iterations 4
bounding nuTilda, min: -0.00547273 max: 4.03278 average: 0.218586
ExecutionTime = 3.74 s  ClockTime = 6 s

Time = 39.5

smoothSolver:  Solving for Ux, Initial residual = 0.0087793, Final residual = 0.000494592, No Iterations 4
smoothSolver:  Solving for Uy, Initial residual = 0.0157814, Final residual = 0.000980375, No Iterations 4
GAMG:  Solving for p, Initial residual = 0.0618594, Final residual = 0.00502181, No Iterations 4
time step continuity errors : sum local = 1.35966e-05, global = 3.83059e-06, cumulative = -0.000183078
smoothSolver:  Solving for nuTilda, Initial residual = 0.0129411, Final residual = 0.000530177, No Iterations 4
bounding nuTilda, min: -0.0243395 max: 4.16415 average: 0.220898
ExecutionTime = 3.78 s  ClockTime = 6 s

Time = 40

smoothSolver:  Solving for Ux, Initial residual = 0.00909439, Final residual = 0.000509914, No Iterations 4
smoothSolver:  Solving for Uy, Initial residual = 0.0163968, Final residual = 0.00103191, No Iterations 4
GAMG:  Solving for p, Initial residual = 0.0635065, Final residual = 0.00530223, No Iterations 4
time step continuity errors : sum local = 1.41697e-05, global = 4.21183e-06, cumulative = -0.000178866
smoothSolver:  Solving for nuTilda, Initial residual = 0.0132191, Final residual = 0.000530466, No Iterations 4
bounding nuTilda, min: -0.00970531 max: 4.27972 average: 0.223389
ExecutionTime = 3.83 s  ClockTime = 6 s

Time = 40.5

smoothSolver:  Solving for Ux, Initial residual = 0.00943249, Final residual = 0.000525107, No Iterations 4
smoothSolver:  Solving for Uy, Initial residual = 0.0170553, Final residual = 0.00108245, No Iterations 4
GAMG:  Solving for p, Initial residual = 0.065445, Final residual = 0.00566845, No Iterations 4
time step continuity errors : sum local = 1.49439e-05, global = 4.65094e-06, cumulative = -0.000174215
smoothSolver:  Solving for nuTilda, Initial residual = 0.0135327, Final residual = 0.000531472, No Iterations 4
bounding nuTilda, min: -0.0115821 max: 4.41318 average: 0.226052
ExecutionTime = 3.87 s  ClockTime = 6 s

Time = 41

smoothSolver:  Solving for Ux, Initial residual = 0.00979867, Final residual = 0.000539582, No Iterations 4
smoothSolver:  Solving for Uy, Initial residual = 0.0177523, Final residual = 0.00112967, No Iterations 4
GAMG:  Solving for p, Initial residual = 0.0671424, Final residual = 0.00610847, No Iterations 4
time step continuity errors : sum local = 1.58912e-05, global = 4.97318e-06, cumulative = -0.000169242
smoothSolver:  Solving for nuTilda, Initial residual = 0.0138885, Final residual = 0.000533793, No Iterations 4
bounding nuTilda, min: -0.0188897 max: 4.53108 average: 0.228903
ExecutionTime = 3.91 s  ClockTime = 6 s

Time = 41.5

smoothSolver:  Solving for Ux, Initial residual = 0.0101819, Final residual = 0.000552857, No Iterations 4
smoothSolver:  Solving for Uy, Initial residual = 0.0184751, Final residual = 0.00117145, No Iterations 4
GAMG:  Solving for p, Initial residual = 0.0689519, Final residual = 0.00658737, No Iterations 4
time step continuity errors : sum local = 1.69031e-05, global = 5.05859e-06, cumulative = -0.000164183
smoothSolver:  Solving for nuTilda, Initial residual = 0.0143417, Final residual = 0.00053804, No Iterations 4
bounding nuTilda, min: -0.0739351 max: 4.654 average: 0.231922
ExecutionTime = 3.95 s  ClockTime = 6 s

Time = 42

smoothSolver:  Solving for Ux, Initial residual = 0.0105845, Final residual = 0.000565006, No Iterations 4
smoothSolver:  Solving for Uy, Initial residual = 0.0192384, Final residual = 0.00120851, No Iterations 4
GAMG:  Solving for p, Initial residual = 0.0705617, Final residual = 0.00699284, No Iterations 4
time step continuity errors : sum local = 1.77038e-05, global = 5.00073e-06, cumulative = -0.000159182
smoothSolver:  Solving for nuTilda, Initial residual = 0.0148765, Final residual = 0.000546312, No Iterations 4
bounding nuTilda, min: -0.0537536 max: 4.77054 average: 0.235122
ExecutionTime = 3.99 s  ClockTime = 6 s

Time = 42.5

smoothSolver:  Solving for Ux, Initial residual = 0.01099, Final residual = 0.000576214, No Iterations 4
smoothSolver:  Solving for Uy, Initial residual = 0.0199992, Final residual = 0.00124057, No Iterations 4
GAMG:  Solving for p, Initial residual = 0.0726771, Final residual = 0.00392831, No Iterations 5
time step continuity errors : sum local = 9.81583e-06, global = -2.03949e-06, cumulative = -0.000161222
smoothSolver:  Solving for nuTilda, Initial residual = 0.0154785, Final residual = 0.000558005, No Iterations 4
bounding nuTilda, min: -0.00952202 max: 4.88226 average: 0.238462
ExecutionTime = 4.04 s  ClockTime = 6 s

Time = 43

smoothSolver:  Solving for Ux, Initial residual = 0.0114409, Final residual = 0.000588149, No Iterations 4
smoothSolver:  Solving for Uy, Initial residual = 0.020772, Final residual = 0.0012727, No Iterations 4
GAMG:  Solving for p, Initial residual = 0.0738675, Final residual = 0.00365218, No Iterations 5
time step continuity errors : sum local = 9.06628e-06, global = -1.75755e-06, cumulative = -0.000162979
smoothSolver:  Solving for nuTilda, Initial residual = 0.0161418, Final residual = 0.000571385, No Iterations 4
bounding nuTilda, min: -0.0797986 max: 4.99111 average: 0.241909
ExecutionTime = 4.08 s  ClockTime = 6 s

Time = 43.5

smoothSolver:  Solving for Ux, Initial residual = 0.0118597, Final residual = 0.000597997, No Iterations 4
smoothSolver:  Solving for Uy, Initial residual = 0.0214504, Final residual = 0.00129529, No Iterations 4
GAMG:  Solving for p, Initial residual = 0.0758867, Final residual = 0.00351258, No Iterations 5
time step continuity errors : sum local = 8.63698e-06, global = -1.66116e-06, cumulative = -0.000164641
smoothSolver:  Solving for nuTilda, Initial residual = 0.0168199, Final residual = 0.000584675, No Iterations 4
bounding nuTilda, min: -0.0468236 max: 5.09132 average: 0.245441
ExecutionTime = 4.13 s  ClockTime = 6 s

Time = 44

smoothSolver:  Solving for Ux, Initial residual = 0.0122713, Final residual = 0.000606921, No Iterations 4
smoothSolver:  Solving for Uy, Initial residual = 0.0220317, Final residual = 0.0013149, No Iterations 4
GAMG:  Solving for p, Initial residual = 0.0759716, Final residual = 0.00340668, No Iterations 5
time step continuity errors : sum local = 8.30825e-06, global = -1.53882e-06, cumulative = -0.000166179
smoothSolver:  Solving for nuTilda, Initial residual = 0.017601, Final residual = 0.000594956, No Iterations 4
bounding nuTilda, min: -0.00735713 max: 5.18443 average: 0.249033
ExecutionTime = 4.17 s  ClockTime = 6 s

Time = 44.5

smoothSolver:  Solving for Ux, Initial residual = 0.0126375, Final residual = 0.000615077, No Iterations 4
smoothSolver:  Solving for Uy, Initial residual = 0.0225477, Final residual = 0.00133093, No Iterations 4
GAMG:  Solving for p, Initial residual = 0.0755192, Final residual = 0.00342672, No Iterations 5
time step continuity errors : sum local = 8.33672e-06, global = -1.37875e-06, cumulative = -0.000167558
smoothSolver:  Solving for nuTilda, Initial residual = 0.0183941, Final residual = 0.00060315, No Iterations 4
bounding nuTilda, min: -0.0546761 max: 5.27062 average: 0.252664
ExecutionTime = 4.21 s  ClockTime = 6 s

Time = 45

smoothSolver:  Solving for Ux, Initial residual = 0.0130108, Final residual = 0.000622755, No Iterations 4
smoothSolver:  Solving for Uy, Initial residual = 0.02305, Final residual = 0.00134108, No Iterations 4
GAMG:  Solving for p, Initial residual = 0.0753322, Final residual = 0.00356436, No Iterations 5
time step continuity errors : sum local = 8.69354e-06, global = -1.21156e-06, cumulative = -0.00016877
smoothSolver:  Solving for nuTilda, Initial residual = 0.0191387, Final residual = 0.000606778, No Iterations 4
bounding nuTilda, min: -0.083133 max: 5.37655 average: 0.256325
ExecutionTime = 4.26 s  ClockTime = 6 s

Time = 45.5

smoothSolver:  Solving for Ux, Initial residual = 0.0134015, Final residual = 0.000630788, No Iterations 4
smoothSolver:  Solving for Uy, Initial residual = 0.0235641, Final residual = 0.00134578, No Iterations 4
GAMG:  Solving for p, Initial residual = 0.0753481, Final residual = 0.0038096, No Iterations 5
time step continuity errors : sum local = 9.33548e-06, global = -1.05804e-06, cumulative = -0.000169828
smoothSolver:  Solving for nuTilda, Initial residual = 0.019854, Final residual = 0.000608624, No Iterations 4
bounding nuTilda, min: -0.0462084 max: 5.43026 average: 0.259985
ExecutionTime = 4.3 s  ClockTime = 6 s

Time = 46

smoothSolver:  Solving for Ux, Initial residual = 0.0138297, Final residual = 0.000639247, No Iterations 4
smoothSolver:  Solving for Uy, Initial residual = 0.0240736, Final residual = 0.0013507, No Iterations 4
GAMG:  Solving for p, Initial residual = 0.0759011, Final residual = 0.00409151, No Iterations 5
time step continuity errors : sum local = 1.00963e-05, global = -8.89598e-07, cumulative = -0.000170717
smoothSolver:  Solving for nuTilda, Initial residual = 0.0206128, Final residual = 0.000603185, No Iterations 4
bounding nuTilda, min: -0.0565624 max: 5.51565 average: 0.263588
ExecutionTime = 4.34 s  ClockTime = 7 s

Time = 46.5

smoothSolver:  Solving for Ux, Initial residual = 0.0142764, Final residual = 0.000648267, No Iterations 4
smoothSolver:  Solving for Uy, Initial residual = 0.0245603, Final residual = 0.0013603, No Iterations 4
GAMG:  Solving for p, Initial residual = 0.07602, Final residual = 0.00434086, No Iterations 5
time step continuity errors : sum local = 1.07881e-05, global = -7.68786e-07, cumulative = -0.000171486
smoothSolver:  Solving for nuTilda, Initial residual = 0.0212772, Final residual = 0.000590228, No Iterations 4
bounding nuTilda, min: -0.0608623 max: 5.55931 average: 0.267143
ExecutionTime = 4.39 s  ClockTime = 7 s

Time = 47

smoothSolver:  Solving for Ux, Initial residual = 0.0147112, Final residual = 0.000656755, No Iterations 4
smoothSolver:  Solving for Uy, Initial residual = 0.0250225, Final residual = 0.00136677, No Iterations 4
GAMG:  Solving for p, Initial residual = 0.0761261, Final residual = 0.0045146, No Iterations 5
time step continuity errors : sum local = 1.13111e-05, global = -5.61086e-07, cumulative = -0.000172047
smoothSolver:  Solving for nuTilda, Initial residual = 0.0219004, Final residual = 0.000573459, No Iterations 4
bounding nuTilda, min: -0.0632916 max: 5.5951 average: 0.270592
ExecutionTime = 4.43 s  ClockTime = 7 s

Time = 47.5

smoothSolver:  Solving for Ux, Initial residual = 0.0151464, Final residual = 0.000664858, No Iterations 4
smoothSolver:  Solving for Uy, Initial residual = 0.0254425, Final residual = 0.00136834, No Iterations 4
GAMG:  Solving for p, Initial residual = 0.0766412, Final residual = 0.0047631, No Iterations 5
time step continuity errors : sum local = 1.20289e-05, global = -6.65213e-07, cumulative = -0.000172712
smoothSolver:  Solving for nuTilda, Initial residual = 0.0225151, Final residual = 0.000554986, No Iterations 4
bounding nuTilda, min: -0.141202 max: 5.62819 average: 0.273931
ExecutionTime = 4.48 s  ClockTime = 7 s

Time = 48

smoothSolver:  Solving for Ux, Initial residual = 0.0155824, Final residual = 0.000672671, No Iterations 4
smoothSolver:  Solving for Uy, Initial residual = 0.0258208, Final residual = 0.00136896, No Iterations 4
GAMG:  Solving for p, Initial residual = 0.0779486, Final residual = 0.00507181, No Iterations 5
time step continuity errors : sum local = 1.29127e-05, global = -1.07417e-06, cumulative = -0.000173787
smoothSolver:  Solving for nuTilda, Initial residual = 0.0230992, Final residual = 0.000531991, No Iterations 4
bounding nuTilda, min: -0.0837942 max: 5.62298 average: 0.277119
ExecutionTime = 4.53 s  ClockTime = 7 s

Time = 48.5

smoothSolver:  Solving for Ux, Initial residual = 0.0160254, Final residual = 0.000680608, No Iterations 4
smoothSolver:  Solving for Uy, Initial residual = 0.0261724, Final residual = 0.00137014, No Iterations 4
GAMG:  Solving for p, Initial residual = 0.0796014, Final residual = 0.005394, No Iterations 5
time step continuity errors : sum local = 1.38098e-05, global = -1.07368e-06, cumulative = -0.00017486
smoothSolver:  Solving for nuTilda, Initial residual = 0.0237254, Final residual = 0.00050325, No Iterations 4
bounding nuTilda, min: -0.0312755 max: 5.6726 average: 0.280145
ExecutionTime = 4.57 s  ClockTime = 7 s

Time = 49

smoothSolver:  Solving for Ux, Initial residual = 0.0164777, Final residual = 0.000688646, No Iterations 4
smoothSolver:  Solving for Uy, Initial residual = 0.0265301, Final residual = 0.00136952, No Iterations 4
GAMG:  Solving for p, Initial residual = 0.0818459, Final residual = 0.00558852, No Iterations 5
time step continuity errors : sum local = 1.43635e-05, global = -9.86271e-07, cumulative = -0.000175846
smoothSolver:  Solving for nuTilda, Initial residual = 0.0242504, Final residual = 0.00236975, No Iterations 2
bounding nuTilda, min: -0.0120653 max: 5.64653 average: 0.283118
ExecutionTime = 4.62 s  ClockTime = 7 s

Time = 49.5

smoothSolver:  Solving for Ux, Initial residual = 0.0169346, Final residual = 0.000695893, No Iterations 4
smoothSolver:  Solving for Uy, Initial residual = 0.0268676, Final residual = 0.001368, No Iterations 4
GAMG:  Solving for p, Initial residual = 0.0833007, Final residual = 0.00564268, No Iterations 5
time step continuity errors : sum local = 1.45269e-05, global = -7.11818e-07, cumulative = -0.000176558
smoothSolver:  Solving for nuTilda, Initial residual = 0.0248075, Final residual = 0.00229868, No Iterations 2
bounding nuTilda, min: -0.042919 max: 5.6653 average: 0.285873
ExecutionTime = 4.67 s  ClockTime = 7 s

Time = 50

smoothSolver:  Solving for Ux, Initial residual = 0.0173871, Final residual = 0.000702439, No Iterations 4
smoothSolver:  Solving for Uy, Initial residual = 0.0271856, Final residual = 0.00136572, No Iterations 4
GAMG:  Solving for p, Initial residual = 0.0852349, Final residual = 0.00566078, No Iterations 5
time step continuity errors : sum local = 1.45697e-05, global = -6.96869e-07, cumulative = -0.000177255
smoothSolver:  Solving for nuTilda, Initial residual = 0.0253506, Final residual = 0.00221531, No Iterations 2
ExecutionTime = 4.77 s  ClockTime = 7 s

Time = 50.5

smoothSolver:  Solving for Ux, Initial residual = 0.0178441, Final residual = 0.000708915, No Iterations 4
smoothSolver:  Solving for Uy, Initial residual = 0.0275028, Final residual = 0.0013647, No Iterations 4
GAMG:  Solving for p, Initial residual = 0.0876394, Final residual = 0.00558576, No Iterations 5
time step continuity errors : sum local = 1.43764e-05, global = -2.13458e-07, cumulative = -0.000177469
smoothSolver:  Solving for nuTilda, Initial residual = 0.0259741, Final residual = 0.00214338, No Iterations 2
bounding nuTilda, min: -0.0618948 max: 5.61925 average: 0.290627
ExecutionTime = 4.82 s  ClockTime = 7 s

Time = 51

smoothSolver:  Solving for Ux, Initial residual = 0.0183076, Final residual = 0.000715554, No Iterations 4
smoothSolver:  Solving for Uy, Initial residual = 0.0277953, Final residual = 0.00136081, No Iterations 4
GAMG:  Solving for p, Initial residual = 0.089989, Final residual = 0.00562665, No Iterations 5
time step continuity errors : sum local = 1.44672e-05, global = -2.3451e-07, cumulative = -0.000177703
smoothSolver:  Solving for nuTilda, Initial residual = 0.0266578, Final residual = 0.00210435, No Iterations 2
ExecutionTime = 4.86 s  ClockTime = 7 s

Time = 51.5

smoothSolver:  Solving for Ux, Initial residual = 0.0187741, Final residual = 0.000722729, No Iterations 4
smoothSolver:  Solving for Uy, Initial residual = 0.0280475, Final residual = 0.00135547, No Iterations 4
GAMG:  Solving for p, Initial residual = 0.0925901, Final residual = 0.00569092, No Iterations 5
time step continuity errors : sum local = 1.46072e-05, global = -2.08726e-07, cumulative = -0.000177912
smoothSolver:  Solving for nuTilda, Initial residual = 0.0275391, Final residual = 0.00209505, No Iterations 2
bounding nuTilda, min: -0.0223176 max: 5.57009 average: 0.294205
ExecutionTime = 4.9 s  ClockTime = 7 s

Time = 52

smoothSolver:  Solving for Ux, Initial residual = 0.0192673, Final residual = 0.000731847, No Iterations 4
smoothSolver:  Solving for Uy, Initial residual = 0.0282962, Final residual = 0.00135108, No Iterations 4
GAMG:  Solving for p, Initial residual = 0.0951078, Final residual = 0.00584849, No Iterations 5
time step continuity errors : sum local = 1.49803e-05, global = -2.2402e-07, cumulative = -0.000178136
smoothSolver:  Solving for nuTilda, Initial residual = 0.0285509, Final residual = 0.00209908, No Iterations 2
bounding nuTilda, min: -0.00367952 max: 5.47632 average: 0.295497
ExecutionTime = 4.95 s  ClockTime = 7 s

Time = 52.5

smoothSolver:  Solving for Ux, Initial residual = 0.0197722, Final residual = 0.000742731, No Iterations 4
smoothSolver:  Solving for Uy, Initial residual = 0.0285835, Final residual = 0.00134967, No Iterations 4
GAMG:  Solving for p, Initial residual = 0.0973949, Final residual = 0.00604674, No Iterations 5
time step continuity errors : sum local = 1.54368e-05, global = -1.58766e-07, cumulative = -0.000178295
smoothSolver:  Solving for nuTilda, Initial residual = 0.0295801, Final residual = 0.00211638, No Iterations 2
ExecutionTime = 4.99 s  ClockTime = 8 s

Time = 53

smoothSolver:  Solving for Ux, Initial residual = 0.0202871, Final residual = 0.000755071, No Iterations 4
smoothSolver:  Solving for Uy, Initial residual = 0.0289298, Final residual = 0.00135175, No Iterations 4
GAMG:  Solving for p, Initial residual = 0.100225, Final residual = 0.00631018, No Iterations 5
time step continuity errors : sum local = 1.60069e-05, global = -1.79069e-08, cumulative = -0.000178313
smoothSolver:  Solving for nuTilda, Initial residual = 0.0306866, Final residual = 0.00213959, No Iterations 2
ExecutionTime = 5.04 s  ClockTime = 8 s

Time = 53.5

smoothSolver:  Solving for Ux, Initial residual = 0.02083, Final residual = 0.000770167, No Iterations 4
smoothSolver:  Solving for Uy, Initial residual = 0.0293234, Final residual = 0.00135649, No Iterations 4
GAMG:  Solving for p, Initial residual = 0.104836, Final residual = 0.00657392, No Iterations 5
time step continuity errors : sum local = 1.65123e-05, global = 2.06789e-07, cumulative = -0.000178106
smoothSolver:  Solving for nuTilda, Initial residual = 0.0318454, Final residual = 0.00217903, No Iterations 2
ExecutionTime = 5.08 s  ClockTime = 8 s

Time = 54

smoothSolver:  Solving for Ux, Initial residual = 0.0213808, Final residual = 0.000788094, No Iterations 4
smoothSolver:  Solving for Uy, Initial residual = 0.0297598, Final residual = 0.00136378, No Iterations 4
GAMG:  Solving for p, Initial residual = 0.111058, Final residual = 0.0109393, No Iterations 4
time step continuity errors : sum local = 2.70391e-05, global = -3.67976e-07, cumulative = -0.000178474
smoothSolver:  Solving for nuTilda, Initial residual = 0.0330827, Final residual = 0.00225499, No Iterations 2
ExecutionTime = 5.13 s  ClockTime = 8 s

Time = 54.5

smoothSolver:  Solving for Ux, Initial residual = 0.0218889, Final residual = 0.000806685, No Iterations 4
smoothSolver:  Solving for Uy, Initial residual = 0.0301636, Final residual = 0.00136525, No Iterations 4
GAMG:  Solving for p, Initial residual = 0.117243, Final residual = 0.007401, No Iterations 5
time step continuity errors : sum local = 1.8056e-05, global = 3.25866e-07, cumulative = -0.000178148
smoothSolver:  Solving for nuTilda, Initial residual = 0.0342292, Final residual = 0.00233878, No Iterations 2
ExecutionTime = 5.17 s  ClockTime = 8 s

Time = 55

smoothSolver:  Solving for Ux, Initial residual = 0.0225355, Final residual = 0.000832289, No Iterations 4
smoothSolver:  Solving for Uy, Initial residual = 0.0306468, Final residual = 0.00138412, No Iterations 4
GAMG:  Solving for p, Initial residual = 0.12233, Final residual = 0.0118003, No Iterations 4
time step continuity errors : sum local = 2.80427e-05, global = -4.62539e-07, cumulative = -0.00017861
smoothSolver:  Solving for nuTilda, Initial residual = 0.0355047, Final residual = 0.00242714, No Iterations 2
ExecutionTime = 5.21 s  ClockTime = 8 s

Time = 55.5

smoothSolver:  Solving for Ux, Initial residual = 0.0230982, Final residual = 0.000859103, No Iterations 4
smoothSolver:  Solving for Uy, Initial residual = 0.0310398, Final residual = 0.00139231, No Iterations 4
GAMG:  Solving for p, Initial residual = 0.126688, Final residual = 0.0117649, No Iterations 4
time step continuity errors : sum local = 2.7569e-05, global = -8.86519e-07, cumulative = -0.000179497
smoothSolver:  Solving for nuTilda, Initial residual = 0.0366732, Final residual = 0.00250647, No Iterations 2
bounding nuTilda, min: -0.00444759 max: 4.93271 average: 0.296316
ExecutionTime = 5.26 s  ClockTime = 8 s

Time = 56

smoothSolver:  Solving for Ux, Initial residual = 0.0237062, Final residual = 0.000894617, No Iterations 4
smoothSolver:  Solving for Uy, Initial residual = 0.0314548, Final residual = 0.00140731, No Iterations 4
GAMG:  Solving for p, Initial residual = 0.130853, Final residual = 0.0116976, No Iterations 4
time step continuity errors : sum local = 2.69772e-05, global = -2.14352e-06, cumulative = -0.00018164
smoothSolver:  Solving for nuTilda, Initial residual = 0.0378348, Final residual = 0.00257132, No Iterations 2
bounding nuTilda, min: -0.00748362 max: 4.93402 average: 0.295746
ExecutionTime = 5.31 s  ClockTime = 8 s

Time = 56.5

smoothSolver:  Solving for Ux, Initial residual = 0.0243835, Final residual = 0.000937109, No Iterations 4
smoothSolver:  Solving for Uy, Initial residual = 0.0319091, Final residual = 0.00143041, No Iterations 4
GAMG:  Solving for p, Initial residual = 0.138514, Final residual = 0.0119805, No Iterations 4
time step continuity errors : sum local = 2.68863e-05, global = -3.08202e-06, cumulative = -0.000184722
smoothSolver:  Solving for nuTilda, Initial residual = 0.0388787, Final residual = 0.00265152, No Iterations 2
bounding nuTilda, min: -0.0181628 max: 4.93197 average: 0.29511
ExecutionTime = 5.35 s  ClockTime = 8 s

Time = 57

smoothSolver:  Solving for Ux, Initial residual = 0.0251424, Final residual = 0.000985642, No Iterations 4
smoothSolver:  Solving for Uy, Initial residual = 0.0323223, Final residual = 0.00145838, No Iterations 4
GAMG:  Solving for p, Initial residual = 0.154491, Final residual = 0.0121186, No Iterations 4
time step continuity errors : sum local = 2.61118e-05, global = -2.56247e-06, cumulative = -0.000187285
smoothSolver:  Solving for nuTilda, Initial residual = 0.0398422, Final residual = 0.00274833, No Iterations 2
bounding nuTilda, min: -0.0204555 max: 4.92776 average: 0.29442
ExecutionTime = 5.39 s  ClockTime = 8 s

Time = 57.5

smoothSolver:  Solving for Ux, Initial residual = 0.0258854, Final residual = 0.00103397, No Iterations 4
smoothSolver:  Solving for Uy, Initial residual = 0.0326027, Final residual = 0.00147295, No Iterations 4
GAMG:  Solving for p, Initial residual = 0.164396, Final residual = 0.0124438, No Iterations 4
time step continuity errors : sum local = 2.60624e-05, global = -1.9259e-06, cumulative = -0.000189211
smoothSolver:  Solving for nuTilda, Initial residual = 0.040845, Final residual = 0.00284486, No Iterations 2
bounding nuTilda, min: -0.0202714 max: 4.91689 average: 0.293721
ExecutionTime = 5.44 s  ClockTime = 8 s

Time = 58

smoothSolver:  Solving for Ux, Initial residual = 0.026481, Final residual = 0.00108268, No Iterations 4
smoothSolver:  Solving for Uy, Initial residual = 0.0327814, Final residual = 0.00148749, No Iterations 4
GAMG:  Solving for p, Initial residual = 0.166894, Final residual = 0.0131583, No Iterations 4
time step continuity errors : sum local = 2.7174e-05, global = -2.44538e-06, cumulative = -0.000191656
smoothSolver:  Solving for nuTilda, Initial residual = 0.041819, Final residual = 0.00291519, No Iterations 2
bounding nuTilda, min: -0.0191609 max: 4.91109 average: 0.293019
ExecutionTime = 5.48 s  ClockTime = 8 s

Time = 58.5

smoothSolver:  Solving for Ux, Initial residual = 0.0270853, Final residual = 0.00113811, No Iterations 4
smoothSolver:  Solving for Uy, Initial residual = 0.0329976, Final residual = 0.0015101, No Iterations 4
GAMG:  Solving for p, Initial residual = 0.178935, Final residual = 0.0156935, No Iterations 4
time step continuity errors : sum local = 3.14138e-05, global = -4.31109e-06, cumulative = -0.000195967
smoothSolver:  Solving for nuTilda, Initial residual = 0.0424753, Final residual = 0.00298813, No Iterations 2
bounding nuTilda, min: -0.0200523 max: 4.94028 average: 0.29231
ExecutionTime = 5.52 s  ClockTime = 8 s

Time = 59

smoothSolver:  Solving for Ux, Initial residual = 0.0278491, Final residual = 0.00120609, No Iterations 4
smoothSolver:  Solving for Uy, Initial residual = 0.0331875, Final residual = 0.00153846, No Iterations 4
GAMG:  Solving for p, Initial residual = 0.190906, Final residual = 0.0179042, No Iterations 4
time step continuity errors : sum local = 3.46653e-05, global = -4.2671e-06, cumulative = -0.000200234
smoothSolver:  Solving for nuTilda, Initial residual = 0.0428934, Final residual = 0.00301655, No Iterations 2
bounding nuTilda, min: -0.0237842 max: 4.95587 average: 0.291517
ExecutionTime = 5.56 s  ClockTime = 8 s

Time = 59.5

smoothSolver:  Solving for Ux, Initial residual = 0.0286906, Final residual = 0.00126876, No Iterations 4
smoothSolver:  Solving for Uy, Initial residual = 0.0333003, Final residual = 0.00156181, No Iterations 4
GAMG:  Solving for p, Initial residual = 0.194638, Final residual = 0.0184756, No Iterations 4
time step continuity errors : sum local = 3.53216e-05, global = -3.45851e-06, cumulative = -0.000203693
smoothSolver:  Solving for nuTilda, Initial residual = 0.0431766, Final residual = 0.0030608, No Iterations 2
bounding nuTilda, min: -0.0270735 max: 4.97178 average: 0.29075
ExecutionTime = 5.61 s  ClockTime = 9 s

Time = 60

smoothSolver:  Solving for Ux, Initial residual = 0.0292484, Final residual = 0.00132219, No Iterations 4
smoothSolver:  Solving for Uy, Initial residual = 0.0330383, Final residual = 0.00154541, No Iterations 4
GAMG:  Solving for p, Initial residual = 0.199827, Final residual = 0.0178142, No Iterations 4
time step continuity errors : sum local = 3.24369e-05, global = -3.53866e-06, cumulative = -0.000207232
smoothSolver:  Solving for nuTilda, Initial residual = 0.0433379, Final residual = 0.0031202, No Iterations 2
bounding nuTilda, min: -0.0276389 max: 4.98025 average: 0.289875
ExecutionTime = 5.66 s  ClockTime = 9 s

Time = 60.5

smoothSolver:  Solving for Ux, Initial residual = 0.0297056, Final residual = 0.00138128, No Iterations 4
smoothSolver:  Solving for Uy, Initial residual = 0.032695, Final residual = 0.0015407, No Iterations 4
GAMG:  Solving for p, Initial residual = 0.210488, Final residual = 0.0126482, No Iterations 5
time step continuity errors : sum local = 2.27929e-05, global = 5.59066e-06, cumulative = -0.000201641
smoothSolver:  Solving for nuTilda, Initial residual = 0.0431314, Final residual = 0.00310395, No Iterations 2
bounding nuTilda, min: -0.0220962 max: 4.97731 average: 0.288859
ExecutionTime = 5.7 s  ClockTime = 9 s

Time = 61

smoothSolver:  Solving for Ux, Initial residual = 0.030666, Final residual = 0.00145575, No Iterations 4
smoothSolver:  Solving for Uy, Initial residual = 0.0327067, Final residual = 0.00156206, No Iterations 4
GAMG:  Solving for p, Initial residual = 0.210863, Final residual = 0.0187365, No Iterations 4
time step continuity errors : sum local = 3.26262e-05, global = -3.84107e-06, cumulative = -0.000205482
smoothSolver:  Solving for nuTilda, Initial residual = 0.0429317, Final residual = 0.0031188, No Iterations 2
bounding nuTilda, min: -0.0209454 max: 4.97186 average: 0.287746
ExecutionTime = 5.74 s  ClockTime = 9 s

Time = 61.5

smoothSolver:  Solving for Ux, Initial residual = 0.0309714, Final residual = 0.0014971, No Iterations 4
smoothSolver:  Solving for Uy, Initial residual = 0.0321075, Final residual = 0.00151745, No Iterations 4
GAMG:  Solving for p, Initial residual = 0.190543, Final residual = 0.017538, No Iterations 4
time step continuity errors : sum local = 3.0332e-05, global = -5.45485e-06, cumulative = -0.000210937
smoothSolver:  Solving for nuTilda, Initial residual = 0.0424431, Final residual = 0.0031266, No Iterations 2
bounding nuTilda, min: -0.0182551 max: 4.99346 average: 0.286514
ExecutionTime = 5.78 s  ClockTime = 9 s

Time = 62

smoothSolver:  Solving for Ux, Initial residual = 0.0313458, Final residual = 0.00153719, No Iterations 4
smoothSolver:  Solving for Uy, Initial residual = 0.0317439, Final residual = 0.00151743, No Iterations 4
GAMG:  Solving for p, Initial residual = 0.207278, Final residual = 0.0109729, No Iterations 5
time step continuity errors : sum local = 1.91544e-05, global = 4.14604e-06, cumulative = -0.000206791
smoothSolver:  Solving for nuTilda, Initial residual = 0.0418376, Final residual = 0.00309245, No Iterations 2
bounding nuTilda, min: -0.0241425 max: 5.01447 average: 0.285108
ExecutionTime = 5.84 s  ClockTime = 9 s

Time = 62.5

smoothSolver:  Solving for Ux, Initial residual = 0.0320195, Final residual = 0.00159467, No Iterations 4
smoothSolver:  Solving for Uy, Initial residual = 0.0315886, Final residual = 0.00151621, No Iterations 4
GAMG:  Solving for p, Initial residual = 0.185076, Final residual = 0.0161938, No Iterations 4
time step continuity errors : sum local = 2.72755e-05, global = -3.60155e-06, cumulative = -0.000210392
smoothSolver:  Solving for nuTilda, Initial residual = 0.0412902, Final residual = 0.00308458, No Iterations 2
bounding nuTilda, min: -0.0175901 max: 5.02404 average: 0.283724
ExecutionTime = 5.94 s  ClockTime = 9 s

Time = 63

smoothSolver:  Solving for Ux, Initial residual = 0.0321646, Final residual = 0.00161779, No Iterations 4
smoothSolver:  Solving for Uy, Initial residual = 0.0311555, Final residual = 0.00149071, No Iterations 4
GAMG:  Solving for p, Initial residual = 0.192685, Final residual = 0.00950098, No Iterations 5
time step continuity errors : sum local = 1.59073e-05, global = 3.25197e-06, cumulative = -0.00020714
smoothSolver:  Solving for nuTilda, Initial residual = 0.0405131, Final residual = 0.00307454, No Iterations 2
bounding nuTilda, min: -0.0362443 max: 5.03291 average: 0.282265
ExecutionTime = 5.99 s  ClockTime = 9 s

Time = 63.5

smoothSolver:  Solving for Ux, Initial residual = 0.0326355, Final residual = 0.00165443, No Iterations 4
smoothSolver:  Solving for Uy, Initial residual = 0.0310621, Final residual = 0.0014961, No Iterations 4
GAMG:  Solving for p, Initial residual = 0.187052, Final residual = 0.0149938, No Iterations 4
time step continuity errors : sum local = 2.45302e-05, global = -4.85695e-06, cumulative = -0.000211997
smoothSolver:  Solving for nuTilda, Initial residual = 0.0396746, Final residual = 0.00302283, No Iterations 2
bounding nuTilda, min: -0.0455745 max: 5.03546 average: 0.28093
ExecutionTime = 6.03 s  ClockTime = 9 s

Time = 64

smoothSolver:  Solving for Ux, Initial residual = 0.03274, Final residual = 0.00168162, No Iterations 4
smoothSolver:  Solving for Uy, Initial residual = 0.030654, Final residual = 0.00148284, No Iterations 4
GAMG:  Solving for p, Initial residual = 0.179308, Final residual = 0.0132595, No Iterations 4
time step continuity errors : sum local = 2.1753e-05, global = -5.28591e-06, cumulative = -0.000217283
smoothSolver:  Solving for nuTilda, Initial residual = 0.0387301, Final residual = 0.0030021, No Iterations 2
bounding nuTilda, min: -0.0318193 max: 5.03909 average: 0.279689
ExecutionTime = 6.07 s  ClockTime = 9 s

Time = 64.5

smoothSolver:  Solving for Ux, Initial residual = 0.0327793, Final residual = 0.00169015, No Iterations 4
smoothSolver:  Solving for Uy, Initial residual = 0.0304135, Final residual = 0.00146065, No Iterations 4
GAMG:  Solving for p, Initial residual = 0.177052, Final residual = 0.0135774, No Iterations 4
time step continuity errors : sum local = 2.26252e-05, global = -5.99857e-06, cumulative = -0.000223282
smoothSolver:  Solving for nuTilda, Initial residual = 0.0375337, Final residual = 0.0029591, No Iterations 2
bounding nuTilda, min: -0.0351574 max: 5.06021 average: 0.278567
ExecutionTime = 6.11 s  ClockTime = 9 s

Time = 65

smoothSolver:  Solving for Ux, Initial residual = 0.0329124, Final residual = 0.00170768, No Iterations 4
smoothSolver:  Solving for Uy, Initial residual = 0.0302761, Final residual = 0.00146541, No Iterations 4
GAMG:  Solving for p, Initial residual = 0.168719, Final residual = 0.0123737, No Iterations 4
time step continuity errors : sum local = 2.07889e-05, global = -4.28843e-06, cumulative = -0.00022757
smoothSolver:  Solving for nuTilda, Initial residual = 0.0364913, Final residual = 0.00292406, No Iterations 2
bounding nuTilda, min: -0.0330018 max: 5.0783 average: 0.277601
ExecutionTime = 6.16 s  ClockTime = 9 s

Time = 65.5

smoothSolver:  Solving for Ux, Initial residual = 0.0329094, Final residual = 0.00171349, No Iterations 4
smoothSolver:  Solving for Uy, Initial residual = 0.0302196, Final residual = 0.00145786, No Iterations 4
GAMG:  Solving for p, Initial residual = 0.169552, Final residual = 0.0134184, No Iterations 4
time step continuity errors : sum local = 2.28581e-05, global = -4.87918e-06, cumulative = -0.000232449
[...]
bounding nuTilda, min: -0.0458237 max: 6.34621 average: 0.451724
ExecutionTime = 44.84 s  ClockTime = 60 s

Time = 485

smoothSolver:  Solving for Ux, Initial residual = 0.00227294, Final residual = 8.52252e-05, No Iterations 4
smoothSolver:  Solving for Uy, Initial residual = 0.00457194, Final residual = 0.000179357, No Iterations 4
GAMG:  Solving for p, Initial residual = 0.0146882, Final residual = 0.00138387, No Iterations 4
time step continuity errors : sum local = 1.78009e-06, global = 5.2551e-07, cumulative = -0.000943653
smoothSolver:  Solving for nuTilda, Initial residual = 0.00282532, Final residual = 0.000262876, No Iterations 2
bounding nuTilda, min: -0.0438197 max: 6.34334 average: 0.452562
ExecutionTime = 44.88 s  ClockTime = 60 s

Time = 485.5

smoothSolver:  Solving for Ux, Initial residual = 0.00224426, Final residual = 8.58285e-05, No Iterations 4
smoothSolver:  Solving for Uy, Initial residual = 0.00447817, Final residual = 0.000177124, No Iterations 4
GAMG:  Solving for p, Initial residual = 0.0144667, Final residual = 0.0014192, No Iterations 4
time step continuity errors : sum local = 1.828e-06, global = 5.81738e-07, cumulative = -0.000943071
smoothSolver:  Solving for nuTilda, Initial residual = 0.00271778, Final residual = 0.000259987, No Iterations 2
bounding nuTilda, min: -0.0432004 max: 6.34002 average: 0.453457
ExecutionTime = 44.93 s  ClockTime = 60 s

Time = 486

smoothSolver:  Solving for Ux, Initial residual = 0.00221853, Final residual = 8.65925e-05, No Iterations 4
smoothSolver:  Solving for Uy, Initial residual = 0.00440014, Final residual = 0.000176371, No Iterations 4
GAMG:  Solving for p, Initial residual = 0.0141117, Final residual = 0.000964042, No Iterations 6
time step continuity errors : sum local = 1.24279e-06, global = 4.6119e-07, cumulative = -0.00094261
smoothSolver:  Solving for nuTilda, Initial residual = 0.00262545, Final residual = 0.000259066, No Iterations 2
bounding nuTilda, min: -0.0424121 max: 6.33629 average: 0.454406
ExecutionTime = 44.98 s  ClockTime = 60 s

Time = 486.5

smoothSolver:  Solving for Ux, Initial residual = 0.00219923, Final residual = 8.78162e-05, No Iterations 4
smoothSolver:  Solving for Uy, Initial residual = 0.00434477, Final residual = 0.000176758, No Iterations 4
GAMG:  Solving for p, Initial residual = 0.013823, Final residual = 0.00133536, No Iterations 4
time step continuity errors : sum local = 1.72361e-06, global = 5.97739e-07, cumulative = -0.000942012
smoothSolver:  Solving for nuTilda, Initial residual = 0.00253904, Final residual = 4.73886e-05, No Iterations 4
bounding nuTilda, min: -0.0410577 max: 6.33116 average: 0.455511
ExecutionTime = 45.02 s  ClockTime = 60 s

Time = 487

smoothSolver:  Solving for Ux, Initial residual = 0.00217761, Final residual = 8.86085e-05, No Iterations 4
smoothSolver:  Solving for Uy, Initial residual = 0.00428725, Final residual = 0.000177788, No Iterations 4
GAMG:  Solving for p, Initial residual = 0.013568, Final residual = 0.00133939, No Iterations 5
time step continuity errors : sum local = 1.72953e-06, global = -6.77407e-07, cumulative = -0.000942689
smoothSolver:  Solving for nuTilda, Initial residual = 0.00250461, Final residual = 4.7292e-05, No Iterations 4
bounding nuTilda, min: -0.00248023 max: 6.32572 average: 0.456678
ExecutionTime = 45.07 s  ClockTime = 60 s

Time = 487.5

smoothSolver:  Solving for Ux, Initial residual = 0.00216095, Final residual = 8.96883e-05, No Iterations 4
smoothSolver:  Solving for Uy, Initial residual = 0.00424439, Final residual = 0.000179281, No Iterations 4
GAMG:  Solving for p, Initial residual = 0.0133713, Final residual = 0.00132188, No Iterations 4
time step continuity errors : sum local = 1.70941e-06, global = 5.3402e-07, cumulative = -0.000942155
smoothSolver:  Solving for nuTilda, Initial residual = 0.00243438, Final residual = 4.69761e-05, No Iterations 4
bounding nuTilda, min: -0.0260379 max: 6.32226 average: 0.457866
ExecutionTime = 45.17 s  ClockTime = 60 s

Time = 488

smoothSolver:  Solving for Ux, Initial residual = 0.00214356, Final residual = 9.06175e-05, No Iterations 4
smoothSolver:  Solving for Uy, Initial residual = 0.00420457, Final residual = 0.000181612, No Iterations 4
GAMG:  Solving for p, Initial residual = 0.0131976, Final residual = 0.000999535, No Iterations 6
time step continuity errors : sum local = 1.29118e-06, global = 5.27784e-07, cumulative = -0.000941627
smoothSolver:  Solving for nuTilda, Initial residual = 0.00238863, Final residual = 4.68143e-05, No Iterations 4
ExecutionTime = 45.21 s  ClockTime = 60 s

Time = 488.5

smoothSolver:  Solving for Ux, Initial residual = 0.00213279, Final residual = 9.20097e-05, No Iterations 4
smoothSolver:  Solving for Uy, Initial residual = 0.00418722, Final residual = 0.000184721, No Iterations 4
GAMG:  Solving for p, Initial residual = 0.0129326, Final residual = 0.000992744, No Iterations 6
time step continuity errors : sum local = 1.28126e-06, global = 5.36481e-07, cumulative = -0.000941091
smoothSolver:  Solving for nuTilda, Initial residual = 0.00229657, Final residual = 4.68374e-05, No Iterations 4
bounding nuTilda, min: -0.0378444 max: 6.32639 average: 0.460354
ExecutionTime = 45.25 s  ClockTime = 60 s

Time = 489

smoothSolver:  Solving for Ux, Initial residual = 0.00212143, Final residual = 9.32091e-05, No Iterations 4
smoothSolver:  Solving for Uy, Initial residual = 0.00417445, Final residual = 0.000188195, No Iterations 4
GAMG:  Solving for p, Initial residual = 0.0126739, Final residual = 0.00095661, No Iterations 6
time step continuity errors : sum local = 1.23403e-06, global = 5.20819e-07, cumulative = -0.00094057
smoothSolver:  Solving for nuTilda, Initial residual = 0.0023246, Final residual = 4.69838e-05, No Iterations 4
ExecutionTime = 45.3 s  ClockTime = 60 s

Time = 489.5

smoothSolver:  Solving for Ux, Initial residual = 0.00211035, Final residual = 9.42374e-05, No Iterations 4
smoothSolver:  Solving for Uy, Initial residual = 0.00416573, Final residual = 0.000191815, No Iterations 4
GAMG:  Solving for p, Initial residual = 0.0124182, Final residual = 0.00094845, No Iterations 6
time step continuity errors : sum local = 1.22312e-06, global = 5.22295e-07, cumulative = -0.000940048
smoothSolver:  Solving for nuTilda, Initial residual = 0.00223331, Final residual = 4.72331e-05, No Iterations 4
bounding nuTilda, min: -0.0416069 max: 6.32878 average: 0.462938
ExecutionTime = 45.35 s  ClockTime = 60 s

Time = 490

smoothSolver:  Solving for Ux, Initial residual = 0.00210046, Final residual = 9.51756e-05, No Iterations 4
smoothSolver:  Solving for Uy, Initial residual = 0.00416356, Final residual = 0.000195691, No Iterations 4
GAMG:  Solving for p, Initial residual = 0.0122176, Final residual = 0.000987569, No Iterations 6
time step continuity errors : sum local = 1.2728e-06, global = 5.54445e-07, cumulative = -0.000939493
smoothSolver:  Solving for nuTilda, Initial residual = 0.00224751, Final residual = 4.74674e-05, No Iterations 4
bounding nuTilda, min: -0.000114329 max: 6.32987 average: 0.464256
ExecutionTime = 45.39 s  ClockTime = 60 s

Time = 490.5

smoothSolver:  Solving for Ux, Initial residual = 0.00209321, Final residual = 9.60868e-05, No Iterations 4
smoothSolver:  Solving for Uy, Initial residual = 0.00417182, Final residual = 0.000199809, No Iterations 4
GAMG:  Solving for p, Initial residual = 0.0120388, Final residual = 0.00105423, No Iterations 6
time step continuity errors : sum local = 1.35708e-06, global = 6.03079e-07, cumulative = -0.00093889
smoothSolver:  Solving for nuTilda, Initial residual = 0.00220232, Final residual = 4.76252e-05, No Iterations 4
bounding nuTilda, min: -0.0413056 max: 6.33092 average: 0.465571
ExecutionTime = 45.43 s  ClockTime = 60 s

Time = 491

smoothSolver:  Solving for Ux, Initial residual = 0.00208953, Final residual = 9.70016e-05, No Iterations 4
smoothSolver:  Solving for Uy, Initial residual = 0.00418994, Final residual = 0.000204402, No Iterations 4
GAMG:  Solving for p, Initial residual = 0.0118995, Final residual = 0.00111714, No Iterations 6
time step continuity errors : sum local = 1.43565e-06, global = 6.47115e-07, cumulative = -0.000938243
smoothSolver:  Solving for nuTilda, Initial residual = 0.00223129, Final residual = 4.77597e-05, No Iterations 4
ExecutionTime = 45.48 s  ClockTime = 60 s

Time = 491.5

smoothSolver:  Solving for Ux, Initial residual = 0.00208827, Final residual = 9.79121e-05, No Iterations 4
smoothSolver:  Solving for Uy, Initial residual = 0.00421622, Final residual = 0.000209256, No Iterations 4
GAMG:  Solving for p, Initial residual = 0.0117699, Final residual = 0.00115557, No Iterations 6
time step continuity errors : sum local = 1.48228e-06, global = 6.74252e-07, cumulative = -0.000937569
smoothSolver:  Solving for nuTilda, Initial residual = 0.00218435, Final residual = 4.7867e-05, No Iterations 4
bounding nuTilda, min: -0.0394318 max: 6.33324 average: 0.468237
ExecutionTime = 45.53 s  ClockTime = 60 s

Time = 492

smoothSolver:  Solving for Ux, Initial residual = 0.00208858, Final residual = 9.87463e-05, No Iterations 4
smoothSolver:  Solving for Uy, Initial residual = 0.00425163, Final residual = 0.000214355, No Iterations 4
GAMG:  Solving for p, Initial residual = 0.0116414, Final residual = 0.000949448, No Iterations 7
time step continuity errors : sum local = 1.21561e-06, global = -4.52871e-07, cumulative = -0.000938022
smoothSolver:  Solving for nuTilda, Initial residual = 0.00222879, Final residual = 4.81133e-05, No Iterations 4
ExecutionTime = 45.58 s  ClockTime = 60 s

Time = 492.5

smoothSolver:  Solving for Ux, Initial residual = 0.00209385, Final residual = 9.97111e-05, No Iterations 4
smoothSolver:  Solving for Uy, Initial residual = 0.00430367, Final residual = 0.00022048, No Iterations 4
GAMG:  Solving for p, Initial residual = 0.0115658, Final residual = 0.00102107, No Iterations 6
time step continuity errors : sum local = 1.30623e-06, global = 5.8338e-07, cumulative = -0.000937439
smoothSolver:  Solving for nuTilda, Initial residual = 0.00218174, Final residual = 4.82186e-05, No Iterations 4
bounding nuTilda, min: -0.0369322 max: 6.33799 average: 0.470909
ExecutionTime = 45.62 s  ClockTime = 61 s

Time = 493

smoothSolver:  Solving for Ux, Initial residual = 0.00209602, Final residual = 0.000100197, No Iterations 4
smoothSolver:  Solving for Uy, Initial residual = 0.00434693, Final residual = 0.000225196, No Iterations 4
GAMG:  Solving for p, Initial residual = 0.0114014, Final residual = 0.00104533, No Iterations 6
time step continuity errors : sum local = 1.33301e-06, global = 6.0534e-07, cumulative = -0.000936833
smoothSolver:  Solving for nuTilda, Initial residual = 0.00225735, Final residual = 4.84651e-05, No Iterations 4
ExecutionTime = 45.66 s  ClockTime = 61 s

Time = 493.5

smoothSolver:  Solving for Ux, Initial residual = 0.00209941, Final residual = 0.00010061, No Iterations 4
smoothSolver:  Solving for Uy, Initial residual = 0.00440051, Final residual = 0.00023064, No Iterations 4
GAMG:  Solving for p, Initial residual = 0.011283, Final residual = 0.00109254, No Iterations 6
time step continuity errors : sum local = 1.38864e-06, global = 6.35608e-07, cumulative = -0.000936198
smoothSolver:  Solving for nuTilda, Initial residual = 0.00219339, Final residual = 4.86248e-05, No Iterations 4
bounding nuTilda, min: -0.0312902 max: 6.34371 average: 0.473562
ExecutionTime = 45.71 s  ClockTime = 61 s

Time = 494

smoothSolver:  Solving for Ux, Initial residual = 0.00210496, Final residual = 0.000101016, No Iterations 4
smoothSolver:  Solving for Uy, Initial residual = 0.00446446, Final residual = 0.00023648, No Iterations 4
GAMG:  Solving for p, Initial residual = 0.0112799, Final residual = 0.000927847, No Iterations 7
time step continuity errors : sum local = 1.17566e-06, global = -4.33439e-07, cumulative = -0.000936631
smoothSolver:  Solving for nuTilda, Initial residual = 0.00227741, Final residual = 4.91205e-05, No Iterations 4
bounding nuTilda, min: -0.000959396 max: 6.34687 average: 0.474883
ExecutionTime = 45.75 s  ClockTime = 61 s

Time = 494.5

smoothSolver:  Solving for Ux, Initial residual = 0.00211835, Final residual = 0.000101719, No Iterations 4
smoothSolver:  Solving for Uy, Initial residual = 0.00454238, Final residual = 0.000243261, No Iterations 4
GAMG:  Solving for p, Initial residual = 0.0112898, Final residual = 0.00104536, No Iterations 6
time step continuity errors : sum local = 1.3221e-06, global = 5.92121e-07, cumulative = -0.000936039
smoothSolver:  Solving for nuTilda, Initial residual = 0.00222268, Final residual = 4.94012e-05, No Iterations 4
bounding nuTilda, min: -0.0282426 max: 6.34986 average: 0.476183
ExecutionTime = 45.8 s  ClockTime = 61 s

Time = 495

smoothSolver:  Solving for Ux, Initial residual = 0.00212958, Final residual = 0.000102027, No Iterations 4
smoothSolver:  Solving for Uy, Initial residual = 0.00460678, Final residual = 0.000248408, No Iterations 4
GAMG:  Solving for p, Initial residual = 0.0112014, Final residual = 0.00107677, No Iterations 6
time step continuity errors : sum local = 1.35646e-06, global = 6.07965e-07, cumulative = -0.000935431
smoothSolver:  Solving for nuTilda, Initial residual = 0.00230294, Final residual = 4.97685e-05, No Iterations 4
bounding nuTilda, min: -0.00428363 max: 6.35242 average: 0.477487
ExecutionTime = 45.85 s  ClockTime = 61 s

Time = 495.5

smoothSolver:  Solving for Ux, Initial residual = 0.00214087, Final residual = 0.000102192, No Iterations 4
smoothSolver:  Solving for Uy, Initial residual = 0.00467353, Final residual = 0.000253673, No Iterations 4
GAMG:  Solving for p, Initial residual = 0.0110911, Final residual = 0.00110687, No Iterations 6
time step continuity errors : sum local = 1.38922e-06, global = 6.20593e-07, cumulative = -0.00093481
smoothSolver:  Solving for nuTilda, Initial residual = 0.00224829, Final residual = 5.02374e-05, No Iterations 4
bounding nuTilda, min: -0.0249643 max: 6.35446 average: 0.478766
ExecutionTime = 45.89 s  ClockTime = 61 s

Time = 496

smoothSolver:  Solving for Ux, Initial residual = 0.00215317, Final residual = 0.000102265, No Iterations 4
smoothSolver:  Solving for Uy, Initial residual = 0.00474272, Final residual = 0.000258834, No Iterations 4
GAMG:  Solving for p, Initial residual = 0.0110943, Final residual = 0.000923835, No Iterations 7
time step continuity errors : sum local = 1.15542e-06, global = -4.17927e-07, cumulative = -0.000935228
smoothSolver:  Solving for nuTilda, Initial residual = 0.00231764, Final residual = 5.06967e-05, No Iterations 4
bounding nuTilda, min: -0.00842085 max: 6.35603 average: 0.480037
ExecutionTime = 45.94 s  ClockTime = 61 s

Time = 496.5

smoothSolver:  Solving for Ux, Initial residual = 0.00217165, Final residual = 0.000102587, No Iterations 4
smoothSolver:  Solving for Uy, Initial residual = 0.00481871, Final residual = 0.000264558, No Iterations 4
GAMG:  Solving for p, Initial residual = 0.0110416, Final residual = 0.00101027, No Iterations 6
time step continuity errors : sum local = 1.2604e-06, global = 5.38294e-07, cumulative = -0.00093469
smoothSolver:  Solving for nuTilda, Initial residual = 0.00227294, Final residual = 5.12958e-05, No Iterations 4
bounding nuTilda, min: -0.0217299 max: 6.35988 average: 0.481286
ExecutionTime = 45.99 s  ClockTime = 61 s

Time = 497

smoothSolver:  Solving for Ux, Initial residual = 0.00218852, Final residual = 0.000102517, No Iterations 4
smoothSolver:  Solving for Uy, Initial residual = 0.00488002, Final residual = 0.000268197, No Iterations 4
GAMG:  Solving for p, Initial residual = 0.0111298, Final residual = 0.00103623, No Iterations 6
time step continuity errors : sum local = 1.28673e-06, global = 5.5337e-07, cumulative = -0.000934137
smoothSolver:  Solving for nuTilda, Initial residual = 0.00233788, Final residual = 5.17494e-05, No Iterations 4
bounding nuTilda, min: -0.00827679 max: 6.3655 average: 0.482524
ExecutionTime = 46.02 s  ClockTime = 61 s

Time = 497.5

smoothSolver:  Solving for Ux, Initial residual = 0.00220595, Final residual = 0.000102398, No Iterations 4
smoothSolver:  Solving for Uy, Initial residual = 0.00494142, Final residual = 0.000271851, No Iterations 4
GAMG:  Solving for p, Initial residual = 0.0109731, Final residual = 0.001058, No Iterations 6
time step continuity errors : sum local = 1.30784e-06, global = 5.56948e-07, cumulative = -0.00093358
smoothSolver:  Solving for nuTilda, Initial residual = 0.00229033, Final residual = 5.23056e-05, No Iterations 4
bounding nuTilda, min: -0.018346 max: 6.3713 average: 0.483735
ExecutionTime = 46.07 s  ClockTime = 61 s

Time = 498

smoothSolver:  Solving for Ux, Initial residual = 0.00222476, Final residual = 0.000102233, No Iterations 4
smoothSolver:  Solving for Uy, Initial residual = 0.00501244, Final residual = 0.000275996, No Iterations 4
GAMG:  Solving for p, Initial residual = 0.0110565, Final residual = 0.00106672, No Iterations 6
time step continuity errors : sum local = 1.31301e-06, global = 5.56232e-07, cumulative = -0.000933023
smoothSolver:  Solving for nuTilda, Initial residual = 0.00235888, Final residual = 5.27673e-05, No Iterations 4
bounding nuTilda, min: -0.00823257 max: 6.37702 average: 0.484932
ExecutionTime = 46.11 s  ClockTime = 61 s

Time = 498.5

smoothSolver:  Solving for Ux, Initial residual = 0.0022458, Final residual = 0.000102094, No Iterations 4
smoothSolver:  Solving for Uy, Initial residual = 0.00508955, Final residual = 0.000280428, No Iterations 4
GAMG:  Solving for p, Initial residual = 0.0110235, Final residual = 0.00106048, No Iterations 6
time step continuity errors : sum local = 1.30011e-06, global = 5.38137e-07, cumulative = -0.000932485
smoothSolver:  Solving for nuTilda, Initial residual = 0.00233352, Final residual = 5.34315e-05, No Iterations 4
bounding nuTilda, min: -0.0145255 max: 6.38233 average: 0.486106
ExecutionTime = 46.16 s  ClockTime = 61 s

Time = 499

smoothSolver:  Solving for Ux, Initial residual = 0.00226699, Final residual = 0.000101882, No Iterations 4
smoothSolver:  Solving for Uy, Initial residual = 0.00516601, Final residual = 0.00028467, No Iterations 4
GAMG:  Solving for p, Initial residual = 0.0111394, Final residual = 0.00103711, No Iterations 6
time step continuity errors : sum local = 1.26641e-06, global = 5.13846e-07, cumulative = -0.000931971
smoothSolver:  Solving for nuTilda, Initial residual = 0.00239627, Final residual = 5.41278e-05, No Iterations 4
bounding nuTilda, min: -0.00841204 max: 6.38694 average: 0.487265
ExecutionTime = 46.2 s  ClockTime = 61 s

Time = 499.5

smoothSolver:  Solving for Ux, Initial residual = 0.00228635, Final residual = 0.000101558, No Iterations 4
smoothSolver:  Solving for Uy, Initial residual = 0.00523879, Final residual = 0.000288367, No Iterations 4
GAMG:  Solving for p, Initial residual = 0.0111681, Final residual = 0.00100854, No Iterations 6
time step continuity errors : sum local = 1.22659e-06, global = 4.78557e-07, cumulative = -0.000931493
smoothSolver:  Solving for nuTilda, Initial residual = 0.00237693, Final residual = 5.46245e-05, No Iterations 4
bounding nuTilda, min: -0.0125855 max: 6.39083 average: 0.488392
ExecutionTime = 46.25 s  ClockTime = 61 s

Time = 500

smoothSolver:  Solving for Ux, Initial residual = 0.00230442, Final residual = 0.000101113, No Iterations 4
smoothSolver:  Solving for Uy, Initial residual = 0.00530658, Final residual = 0.000291525, No Iterations 4
GAMG:  Solving for p, Initial residual = 0.0113286, Final residual = 0.000984152, No Iterations 6
time step continuity errors : sum local = 1.19197e-06, global = 4.52198e-07, cumulative = -0.000931041
smoothSolver:  Solving for nuTilda, Initial residual = 0.00241641, Final residual = 5.51178e-05, No Iterations 4
bounding nuTilda, min: -0.00773925 max: 6.39433 average: 0.489497
ExecutionTime = 46.35 s  ClockTime = 61 s

End

