/*---------------------------------------------------------------------------*\
  =========                 |
  \\      /  F ield         | OpenFOAM: The Open Source CFD Toolbox
   \\    /   O peration     | Website:  https://openfoam.org
    \\  /    A nd           | Version:  9
     \\/     M anipulation  |
\*---------------------------------------------------------------------------*/
Build  : 9-a0f1846504f2
Exec   : simpleFoam
Date   : Nov 21 2021
Time   : 20:12:28
Host   : "tw-Satellite-C45t-A"
PID    : 11854
I/O    : uncollated
Case   : /home/tw/OpenFOAM/tw-9/run/curso-cfd/03-airFoil2D
nProcs : 1
sigFpe : Enabling floating point exception trapping (FOAM_SIGFPE).
fileModificationChecking : Monitoring run-time modified files using timeStampMaster (fileModificationSkew 10)
allowSystemOperations : Allowing user-supplied system call operations

// * * * * * * * * * * * * * * * * * * * * * * * * * * * * * * * * * * * * * //
Create time

Create mesh for time = 0


SIMPLE: Convergence criteria found
        p: tolerance 1e-05
        U: tolerance 1e-05
        nuTilda: tolerance 1e-05

Reading field p

Reading field U

Reading/calculating face flux field phi

Selecting incompressible transport model Newtonian
Selecting turbulence model type RAS
Selecting RAS turbulence model SpalartAllmaras
Selecting patchDistMethod meshWave
RAS
{
    model           SpalartAllmaras;
    turbulence      on;
    printCoeffs     on;
    sigmaNut        0.66666;
    kappa           0.41;
    Cb1             0.1355;
    Cb2             0.622;
    Cw2             0.3;
    Cw3             2;
    Cv1             7.1;
    Cs              0.3;
}

No MRF models present

No fvModels present
No fvConstraints present

Starting time loop

--> FOAM Warning : 
    From function void Foam::timeControl::read(const Foam::dictionary&)
    in file db/functionObjects/timeControl/timeControl.C at line 89
    Reading "/home/tw/OpenFOAM/tw-9/run/curso-cfd/03-airFoil2D/system/controlDict/functions/airfoil" from line 58 to line 67
    Using deprecated 'outputControl'
    Please use 'writeControl' with 'writeInterval'
forces airfoil:
    Not including porosity effects
--> FOAM Warning : 
    From function void Foam::timeControl::read(const Foam::dictionary&)
    in file db/functionObjects/timeControl/timeControl.C at line 89
    Reading "/home/tw/OpenFOAM/tw-9/run/curso-cfd/03-airFoil2D/system/controlDict/functions/airfoil" from line 58 to line 67
    Using deprecated 'outputControl'
    Please use 'writeControl' with 'writeInterval'
forces airfoil write:
    sum of forces:
        pressure : (0 0 0)
        viscous  : (0.00625281 0.00404442 3.70856e-20)
        porous   : (0 0 0)
    sum of moments:
        pressure : (0 0 0)
        viscous  : (-0.00010111 0.00015632 -0.00329685)
        porous   : (0 0 0)

Time = 1

smoothSolver:  Solving for Ux, Initial residual = 1, Final residual = 0.0167567, No Iterations 4
smoothSolver:  Solving for Uy, Initial residual = 1, Final residual = 0.0160634, No Iterations 4
GAMG:  Solving for p, Initial residual = 1, Final residual = 0.0969078, No Iterations 8
time step continuity errors : sum local = 0.000375464, global = -0.000158248, cumulative = -0.000158248
smoothSolver:  Solving for nuTilda, Initial residual = 1, Final residual = 0.0187601, No Iterations 2
ExecutionTime = 0.24 s  ClockTime = 1 s

Time = 2

smoothSolver:  Solving for Ux, Initial residual = 0.492993, Final residual = 0.0260676, No Iterations 4
smoothSolver:  Solving for Uy, Initial residual = 0.522541, Final residual = 0.0172503, No Iterations 4
GAMG:  Solving for p, Initial residual = 0.332723, Final residual = 0.0256356, No Iterations 5
time step continuity errors : sum local = 0.000581439, global = 0.000160114, cumulative = 1.86593e-06
smoothSolver:  Solving for nuTilda, Initial residual = 0.0728521, Final residual = 0.00716971, No Iterations 2
ExecutionTime = 0.28 s  ClockTime = 1 s

Time = 3

smoothSolver:  Solving for Ux, Initial residual = 0.200464, Final residual = 0.0115187, No Iterations 4
smoothSolver:  Solving for Uy, Initial residual = 0.120695, Final residual = 0.00483724, No Iterations 4
GAMG:  Solving for p, Initial residual = 0.424125, Final residual = 0.0363118, No Iterations 7
time step continuity errors : sum local = 0.000684717, global = 0.000269154, cumulative = 0.00027102
smoothSolver:  Solving for nuTilda, Initial residual = 0.0603157, Final residual = 0.00201099, No Iterations 4
ExecutionTime = 0.32 s  ClockTime = 1 s

Time = 4

smoothSolver:  Solving for Ux, Initial residual = 0.0525269, Final residual = 0.00257975, No Iterations 4
smoothSolver:  Solving for Uy, Initial residual = 0.0423343, Final residual = 0.00197076, No Iterations 4
GAMG:  Solving for p, Initial residual = 0.556714, Final residual = 0.0505789, No Iterations 6
time step continuity errors : sum local = 0.000445974, global = 0.000158239, cumulative = 0.000429259
smoothSolver:  Solving for nuTilda, Initial residual = 0.0634292, Final residual = 0.00219382, No Iterations 4
ExecutionTime = 0.36 s  ClockTime = 1 s

Time = 5

smoothSolver:  Solving for Ux, Initial residual = 0.138628, Final residual = 0.00680452, No Iterations 4
smoothSolver:  Solving for Uy, Initial residual = 0.137061, Final residual = 0.00495244, No Iterations 4
GAMG:  Solving for p, Initial residual = 0.378309, Final residual = 0.0227309, No Iterations 5
time step continuity errors : sum local = 0.000384105, global = -0.000125971, cumulative = 0.000303288
smoothSolver:  Solving for nuTilda, Initial residual = 0.0652379, Final residual = 0.00239515, No Iterations 4
ExecutionTime = 0.4 s  ClockTime = 1 s

forces airfoil write:
    sum of forces:
        pressure : (-98.6823 -531.798 -1.29885e-14)
        viscous  : (-0.00901521 0.0174312 2.12946e-17)
        porous   : (0 0 0)
    sum of moments:
        pressure : (13.295 -2.46706 -658.371)
        viscous  : (-0.00043578 -0.00022538 0.0739445)
        porous   : (0 0 0)

Time = 6

smoothSolver:  Solving for Ux, Initial residual = 0.157072, Final residual = 0.00855363, No Iterations 4
smoothSolver:  Solving for Uy, Initial residual = 0.216004, Final residual = 0.00986429, No Iterations 4
GAMG:  Solving for p, Initial residual = 0.363143, Final residual = 0.0310047, No Iterations 7
time step continuity errors : sum local = 0.000452165, global = -0.000157802, cumulative = 0.000145486
smoothSolver:  Solving for nuTilda, Initial residual = 0.0664887, Final residual = 0.0023151, No Iterations 4
ExecutionTime = 0.45 s  ClockTime = 1 s

Time = 7

smoothSolver:  Solving for Ux, Initial residual = 0.0843148, Final residual = 0.00350039, No Iterations 4
smoothSolver:  Solving for Uy, Initial residual = 0.138977, Final residual = 0.00528589, No Iterations 4
GAMG:  Solving for p, Initial residual = 0.733203, Final residual = 0.0581617, No Iterations 6
time step continuity errors : sum local = 0.00038292, global = -9.97904e-05, cumulative = 4.56951e-05
smoothSolver:  Solving for nuTilda, Initial residual = 0.0677041, Final residual = 0.002459, No Iterations 4
ExecutionTime = 0.49 s  ClockTime = 1 s

Time = 8

smoothSolver:  Solving for Ux, Initial residual = 0.107218, Final residual = 0.00521332, No Iterations 4
smoothSolver:  Solving for Uy, Initial residual = 0.121341, Final residual = 0.00351964, No Iterations 4
GAMG:  Solving for p, Initial residual = 0.528693, Final residual = 0.0342132, No Iterations 4
time step continuity errors : sum local = 0.000338701, global = -3.56917e-05, cumulative = 1.00035e-05
smoothSolver:  Solving for nuTilda, Initial residual = 0.0745483, Final residual = 0.0030685, No Iterations 4
ExecutionTime = 0.53 s  ClockTime = 1 s

Time = 9

smoothSolver:  Solving for Ux, Initial residual = 0.0822638, Final residual = 0.00472467, No Iterations 4
smoothSolver:  Solving for Uy, Initial residual = 0.0735303, Final residual = 0.00290238, No Iterations 4
GAMG:  Solving for p, Initial residual = 0.46989, Final residual = 0.0408548, No Iterations 6
time step continuity errors : sum local = 0.00034675, global = -0.000121847, cumulative = -0.000111843
smoothSolver:  Solving for nuTilda, Initial residual = 0.0883511, Final residual = 0.00376197, No Iterations 4
ExecutionTime = 0.57 s  ClockTime = 1 s

Time = 10

smoothSolver:  Solving for Ux, Initial residual = 0.0432498, Final residual = 0.00257891, No Iterations 4
smoothSolver:  Solving for Uy, Initial residual = 0.0462497, Final residual = 0.00228126, No Iterations 4
GAMG:  Solving for p, Initial residual = 0.63988, Final residual = 0.0638279, No Iterations 5
time step continuity errors : sum local = 0.000346779, global = 0.000125157, cumulative = 1.33142e-05
smoothSolver:  Solving for nuTilda, Initial residual = 0.0716651, Final residual = 0.00298766, No Iterations 4
ExecutionTime = 0.61 s  ClockTime = 1 s

forces airfoil write:
    sum of forces:
        pressure : (-50.9301 -102.658 9.46262e-15)
        viscous  : (0.253149 0.0664044 -1.26408e-16)
        porous   : (0 0 0)
    sum of moments:
        pressure : (2.56645 -1.27325 -1541.97)
        viscous  : (-0.00166011 0.00632872 -0.343765)
        porous   : (0 0 0)

Time = 11

smoothSolver:  Solving for Ux, Initial residual = 0.0398445, Final residual = 0.00192264, No Iterations 4
smoothSolver:  Solving for Uy, Initial residual = 0.0589685, Final residual = 0.00276255, No Iterations 4
GAMG:  Solving for p, Initial residual = 0.484251, Final residual = 0.0311909, No Iterations 4
time step continuity errors : sum local = 0.000249328, global = 4.3677e-06, cumulative = 1.76819e-05
smoothSolver:  Solving for nuTilda, Initial residual = 0.0592514, Final residual = 0.00239237, No Iterations 4
ExecutionTime = 0.65 s  ClockTime = 1 s

Time = 12

smoothSolver:  Solving for Ux, Initial residual = 0.0468378, Final residual = 0.00231149, No Iterations 4
smoothSolver:  Solving for Uy, Initial residual = 0.062413, Final residual = 0.00282797, No Iterations 4
GAMG:  Solving for p, Initial residual = 0.40847, Final residual = 0.0246659, No Iterations 5
time step continuity errors : sum local = 0.000190372, global = -4.79181e-06, cumulative = 1.28901e-05
smoothSolver:  Solving for nuTilda, Initial residual = 0.0511117, Final residual = 0.00203407, No Iterations 4
ExecutionTime = 0.69 s  ClockTime = 1 s

Time = 13

smoothSolver:  Solving for Ux, Initial residual = 0.0392409, Final residual = 0.00174403, No Iterations 4
smoothSolver:  Solving for Uy, Initial residual = 0.0484397, Final residual = 0.00207652, No Iterations 4
GAMG:  Solving for p, Initial residual = 0.484769, Final residual = 0.0334633, No Iterations 5
time step continuity errors : sum local = 0.000194121, global = -1.91431e-05, cumulative = -6.25298e-06
smoothSolver:  Solving for nuTilda, Initial residual = 0.0449264, Final residual = 0.0017506, No Iterations 4
ExecutionTime = 0.73 s  ClockTime = 1 s

Time = 14

smoothSolver:  Solving for Ux, Initial residual = 0.0341496, Final residual = 0.00139136, No Iterations 4
smoothSolver:  Solving for Uy, Initial residual = 0.0424974, Final residual = 0.00123401, No Iterations 4
GAMG:  Solving for p, Initial residual = 0.676434, Final residual = 0.04599, No Iterations 4
time step continuity errors : sum local = 0.000206789, global = -1.44971e-05, cumulative = -2.07501e-05
smoothSolver:  Solving for nuTilda, Initial residual = 0.0394776, Final residual = 0.00153059, No Iterations 4
ExecutionTime = 0.77 s  ClockTime = 1 s

Time = 15

smoothSolver:  Solving for Ux, Initial residual = 0.0335294, Final residual = 0.00172166, No Iterations 4
smoothSolver:  Solving for Uy, Initial residual = 0.0391473, Final residual = 0.00128082, No Iterations 4
GAMG:  Solving for p, Initial residual = 0.621648, Final residual = 0.0555886, No Iterations 4
time step continuity errors : sum local = 0.000220786, global = -2.79994e-05, cumulative = -4.87494e-05
smoothSolver:  Solving for nuTilda, Initial residual = 0.034679, Final residual = 0.00131541, No Iterations 4
ExecutionTime = 0.8 s  ClockTime = 1 s

forces airfoil write:
    sum of forces:
        pressure : (-8.49701 200.42 2.62968e-15)
        viscous  : (0.170861 0.0975395 3.91698e-17)
        porous   : (0 0 0)
    sum of moments:
        pressure : (-5.01049 -0.212425 -1147.94)
        viscous  : (-0.00243849 0.00427153 0.00806093)
        porous   : (0 0 0)

Time = 16

smoothSolver:  Solving for Ux, Initial residual = 0.0275464, Final residual = 0.00160205, No Iterations 4
smoothSolver:  Solving for Uy, Initial residual = 0.0338149, Final residual = 0.00151192, No Iterations 4
GAMG:  Solving for p, Initial residual = 0.496728, Final residual = 0.039565, No Iterations 4
time step continuity errors : sum local = 0.000173492, global = -4.22597e-05, cumulative = -9.10091e-05
smoothSolver:  Solving for nuTilda, Initial residual = 0.0314365, Final residual = 0.00113658, No Iterations 4
ExecutionTime = 0.84 s  ClockTime = 1 s

Time = 17

smoothSolver:  Solving for Ux, Initial residual = 0.0222266, Final residual = 0.00130781, No Iterations 4
smoothSolver:  Solving for Uy, Initial residual = 0.0307929, Final residual = 0.00165841, No Iterations 4
GAMG:  Solving for p, Initial residual = 0.445577, Final residual = 0.0322487, No Iterations 4
time step continuity errors : sum local = 0.000167512, global = -4.10065e-05, cumulative = -0.000132016
smoothSolver:  Solving for nuTilda, Initial residual = 0.0292652, Final residual = 0.00100936, No Iterations 4
ExecutionTime = 0.88 s  ClockTime = 2 s

Time = 18

smoothSolver:  Solving for Ux, Initial residual = 0.0230954, Final residual = 0.00114465, No Iterations 4
smoothSolver:  Solving for Uy, Initial residual = 0.0307861, Final residual = 0.00158437, No Iterations 4
GAMG:  Solving for p, Initial residual = 0.370754, Final residual = 0.0269393, No Iterations 4
time step continuity errors : sum local = 0.000142469, global = -3.55851e-05, cumulative = -0.000167601
smoothSolver:  Solving for nuTilda, Initial residual = 0.0274571, Final residual = 0.000918427, No Iterations 4
ExecutionTime = 0.92 s  ClockTime = 2 s

Time = 19

smoothSolver:  Solving for Ux, Initial residual = 0.0232039, Final residual = 0.00107758, No Iterations 4
smoothSolver:  Solving for Uy, Initial residual = 0.0287891, Final residual = 0.0012837, No Iterations 4
GAMG:  Solving for p, Initial residual = 0.366937, Final residual = 0.0284952, No Iterations 4
time step continuity errors : sum local = 0.000138521, global = -3.2402e-05, cumulative = -0.000200003
smoothSolver:  Solving for nuTilda, Initial residual = 0.0260528, Final residual = 0.00084557, No Iterations 4
ExecutionTime = 0.96 s  ClockTime = 2 s

Time = 20

smoothSolver:  Solving for Ux, Initial residual = 0.0193882, Final residual = 0.00083391, No Iterations 4
smoothSolver:  Solving for Uy, Initial residual = 0.0244986, Final residual = 0.000990721, No Iterations 4
GAMG:  Solving for p, Initial residual = 0.40389, Final residual = 0.027043, No Iterations 4
time step continuity errors : sum local = 0.000120261, global = -2.75722e-05, cumulative = -0.000227575
smoothSolver:  Solving for nuTilda, Initial residual = 0.0247051, Final residual = 0.000787059, No Iterations 4
ExecutionTime = 1.07 s  ClockTime = 2 s

forces airfoil write:
    sum of forces:
        pressure : (-15.2525 201.53 -2.71845e-15)
        viscous  : (0.10095 0.104857 7.10953e-17)
        porous   : (0 0 0)
    sum of moments:
        pressure : (-5.03825 -0.381312 -806.824)
        viscous  : (-0.00262142 0.00252375 -0.180108)
        porous   : (0 0 0)

Time = 21

smoothSolver:  Solving for Ux, Initial residual = 0.0182897, Final residual = 0.000857762, No Iterations 4
smoothSolver:  Solving for Uy, Initial residual = 0.0245513, Final residual = 0.000921541, No Iterations 4
GAMG:  Solving for p, Initial residual = 0.382299, Final residual = 0.0222736, No Iterations 4
time step continuity errors : sum local = 9.14228e-05, global = -2.53186e-05, cumulative = -0.000252893
smoothSolver:  Solving for nuTilda, Initial residual = 0.0234588, Final residual = 0.000725742, No Iterations 4
ExecutionTime = 1.11 s  ClockTime = 2 s

Time = 22

smoothSolver:  Solving for Ux, Initial residual = 0.0182493, Final residual = 0.000985151, No Iterations 4
smoothSolver:  Solving for Uy, Initial residual = 0.0243444, Final residual = 0.00102779, No Iterations 4
GAMG:  Solving for p, Initial residual = 0.3496, Final residual = 0.0233951, No Iterations 4
time step continuity errors : sum local = 9.55398e-05, global = -2.58552e-05, cumulative = -0.000278749
smoothSolver:  Solving for nuTilda, Initial residual = 0.0224013, Final residual = 0.000671737, No Iterations 4
ExecutionTime = 1.14 s  ClockTime = 2 s

Time = 23

smoothSolver:  Solving for Ux, Initial residual = 0.0160953, Final residual = 0.000925991, No Iterations 4
smoothSolver:  Solving for Uy, Initial residual = 0.0212314, Final residual = 0.00108842, No Iterations 4
GAMG:  Solving for p, Initial residual = 0.311663, Final residual = 0.021173, No Iterations 4
time step continuity errors : sum local = 9.20353e-05, global = -2.61985e-05, cumulative = -0.000304947
smoothSolver:  Solving for nuTilda, Initial residual = 0.0215332, Final residual = 0.000625555, No Iterations 4
ExecutionTime = 1.18 s  ClockTime = 2 s

Time = 24

smoothSolver:  Solving for Ux, Initial residual = 0.0150451, Final residual = 0.000788931, No Iterations 4
smoothSolver:  Solving for Uy, Initial residual = 0.0210134, Final residual = 0.00112818, No Iterations 4
GAMG:  Solving for p, Initial residual = 0.268955, Final residual = 0.0142278, No Iterations 4
time step continuity errors : sum local = 6.41813e-05, global = -1.80392e-05, cumulative = -0.000322986
smoothSolver:  Solving for nuTilda, Initial residual = 0.0206847, Final residual = 0.000587534, No Iterations 4
ExecutionTime = 1.22 s  ClockTime = 2 s

Time = 25

smoothSolver:  Solving for Ux, Initial residual = 0.0153167, Final residual = 0.000721894, No Iterations 4
smoothSolver:  Solving for Uy, Initial residual = 0.0211453, Final residual = 0.00105805, No Iterations 4
GAMG:  Solving for p, Initial residual = 0.250629, Final residual = 0.0142733, No Iterations 4
time step continuity errors : sum local = 6.39203e-05, global = -1.51922e-05, cumulative = -0.000338179
smoothSolver:  Solving for nuTilda, Initial residual = 0.0199236, Final residual = 0.000556579, No Iterations 4
ExecutionTime = 1.26 s  ClockTime = 2 s

forces airfoil write:
    sum of forces:
        pressure : (-24.3802 162.52 -1.47728e-15)
        viscous  : (0.0522166 0.103185 4.78657e-17)
        porous   : (0 0 0)
    sum of moments:
        pressure : (-4.063 -0.609505 -777.698)
        viscous  : (-0.00257963 0.00130542 -0.176722)
        porous   : (0 0 0)

Time = 26

smoothSolver:  Solving for Ux, Initial residual = 0.0145548, Final residual = 0.000641239, No Iterations 4
smoothSolver:  Solving for Uy, Initial residual = 0.019231, Final residual = 0.000884639, No Iterations 4
GAMG:  Solving for p, Initial residual = 0.248488, Final residual = 0.0182739, No Iterations 4
time step continuity errors : sum local = 7.7471e-05, global = -1.86782e-05, cumulative = -0.000356857
smoothSolver:  Solving for nuTilda, Initial residual = 0.019209, Final residual = 0.000528506, No Iterations 4
ExecutionTime = 1.3 s  ClockTime = 2 s

Time = 27

smoothSolver:  Solving for Ux, Initial residual = 0.0134741, Final residual = 0.00056847, No Iterations 4
smoothSolver:  Solving for Uy, Initial residual = 0.0182021, Final residual = 0.000766925, No Iterations 4
GAMG:  Solving for p, Initial residual = 0.249097, Final residual = 0.0172563, No Iterations 4
time step continuity errors : sum local = 6.83646e-05, global = -1.58043e-05, cumulative = -0.000372661
smoothSolver:  Solving for nuTilda, Initial residual = 0.0185268, Final residual = 0.000500541, No Iterations 4
ExecutionTime = 1.34 s  ClockTime = 2 s

Time = 28

smoothSolver:  Solving for Ux, Initial residual = 0.0132016, Final residual = 0.000623556, No Iterations 4
smoothSolver:  Solving for Uy, Initial residual = 0.0183392, Final residual = 0.000780539, No Iterations 4
GAMG:  Solving for p, Initial residual = 0.235898, Final residual = 0.013424, No Iterations 4
time step continuity errors : sum local = 5.16907e-05, global = -1.21892e-05, cumulative = -0.00038485
smoothSolver:  Solving for nuTilda, Initial residual = 0.0179236, Final residual = 0.000476325, No Iterations 4
ExecutionTime = 1.38 s  ClockTime = 2 s

Time = 29

smoothSolver:  Solving for Ux, Initial residual = 0.0127783, Final residual = 0.000642469, No Iterations 4
smoothSolver:  Solving for Uy, Initial residual = 0.0175577, Final residual = 0.000826876, No Iterations 4
GAMG:  Solving for p, Initial residual = 0.208676, Final residual = 0.0140596, No Iterations 4
time step continuity errors : sum local = 5.51613e-05, global = -1.51159e-05, cumulative = -0.000399966
smoothSolver:  Solving for nuTilda, Initial residual = 0.0173586, Final residual = 0.000455857, No Iterations 4
ExecutionTime = 1.42 s  ClockTime = 2 s

Time = 30

smoothSolver:  Solving for Ux, Initial residual = 0.0121881, Final residual = 0.000596027, No Iterations 4
smoothSolver:  Solving for Uy, Initial residual = 0.0165111, Final residual = 0.000853485, No Iterations 4
GAMG:  Solving for p, Initial residual = 0.179095, Final residual = 0.0110873, No Iterations 4
time step continuity errors : sum local = 4.62555e-05, global = -1.34917e-05, cumulative = -0.000413458
smoothSolver:  Solving for nuTilda, Initial residual = 0.0168374, Final residual = 0.000439222, No Iterations 4
ExecutionTime = 1.46 s  ClockTime = 2 s

forces airfoil write:
    sum of forces:
        pressure : (-19.8271 176.142 3.26462e-16)
        viscous  : (0.0103084 0.103711 4.66671e-17)
        porous   : (0 0 0)
    sum of moments:
        pressure : (-4.40354 -0.495677 -823.177)
        viscous  : (-0.00259278 0.000257709 0.0060615)
        porous   : (0 0 0)

Time = 31

smoothSolver:  Solving for Ux, Initial residual = 0.0117504, Final residual = 0.000522387, No Iterations 4
smoothSolver:  Solving for Uy, Initial residual = 0.0163164, Final residual = 0.000865289, No Iterations 4
GAMG:  Solving for p, Initial residual = 0.161425, Final residual = 0.00845222, No Iterations 4
time step continuity errors : sum local = 3.68843e-05, global = -9.44937e-06, cumulative = -0.000422907
smoothSolver:  Solving for nuTilda, Initial residual = 0.0164055, Final residual = 0.000427026, No Iterations 4
ExecutionTime = 1.5 s  ClockTime = 2 s

Time = 32

smoothSolver:  Solving for Ux, Initial residual = 0.0115861, Final residual = 0.000475332, No Iterations 4
smoothSolver:  Solving for Uy, Initial residual = 0.0159508, Final residual = 0.000808636, No Iterations 4
GAMG:  Solving for p, Initial residual = 0.153356, Final residual = 0.00873771, No Iterations 4
time step continuity errors : sum local = 3.82559e-05, global = -8.82803e-06, cumulative = -0.000431735
smoothSolver:  Solving for nuTilda, Initial residual = 0.0160225, Final residual = 0.000417909, No Iterations 4
ExecutionTime = 1.54 s  ClockTime = 2 s

Time = 33

smoothSolver:  Solving for Ux, Initial residual = 0.0112344, Final residual = 0.000431469, No Iterations 4
smoothSolver:  Solving for Uy, Initial residual = 0.0152717, Final residual = 0.000725316, No Iterations 4
GAMG:  Solving for p, Initial residual = 0.152075, Final residual = 0.0103501, No Iterations 4
time step continuity errors : sum local = 4.33946e-05, global = -1.04546e-05, cumulative = -0.00044219
smoothSolver:  Solving for nuTilda, Initial residual = 0.0156817, Final residual = 0.000408744, No Iterations 4
ExecutionTime = 1.58 s  ClockTime = 2 s

Time = 34

smoothSolver:  Solving for Ux, Initial residual = 0.0109185, Final residual = 0.000431672, No Iterations 4
smoothSolver:  Solving for Uy, Initial residual = 0.0149103, Final residual = 0.000661372, No Iterations 4
GAMG:  Solving for p, Initial residual = 0.149201, Final residual = 0.0101144, No Iterations 4
time step continuity errors : sum local = 4.02704e-05, global = -9.24679e-06, cumulative = -0.000451437
smoothSolver:  Solving for nuTilda, Initial residual = 0.0153491, Final residual = 0.000400731, No Iterations 4
ExecutionTime = 1.61 s  ClockTime = 2 s

Time = 35

smoothSolver:  Solving for Ux, Initial residual = 0.0106777, Final residual = 0.00044981, No Iterations 4
smoothSolver:  Solving for Uy, Initial residual = 0.0150256, Final residual = 0.000656586, No Iterations 4
GAMG:  Solving for p, Initial residual = 0.140328, Final residual = 0.00981282, No Iterations 4
time step continuity errors : sum local = 3.81534e-05, global = -8.24502e-06, cumulative = -0.000459682
smoothSolver:  Solving for nuTilda, Initial residual = 0.0150711, Final residual = 0.000395618, No Iterations 4
ExecutionTime = 1.65 s  ClockTime = 2 s

forces airfoil write:
    sum of forces:
        pressure : (-12.787 198.035 1.24672e-15)
        viscous  : (-0.0305631 0.0998274 5.05053e-17)
        porous   : (0 0 0)
    sum of moments:
        pressure : (-4.95087 -0.319676 -772.955)
        viscous  : (-0.00249569 -0.000764078 0.218363)
        porous   : (0 0 0)

Time = 36

smoothSolver:  Solving for Ux, Initial residual = 0.0104388, Final residual = 0.000450508, No Iterations 4
smoothSolver:  Solving for Uy, Initial residual = 0.0148304, Final residual = 0.000686364, No Iterations 4
GAMG:  Solving for p, Initial residual = 0.125894, Final residual = 0.00986963, No Iterations 4
time step continuity errors : sum local = 3.92155e-05, global = -9.76575e-06, cumulative = -0.000469447
smoothSolver:  Solving for nuTilda, Initial residual = 0.0148307, Final residual = 0.000392179, No Iterations 4
ExecutionTime = 1.69 s  ClockTime = 2 s

Time = 37

smoothSolver:  Solving for Ux, Initial residual = 0.0101313, Final residual = 0.000419971, No Iterations 4
smoothSolver:  Solving for Uy, Initial residual = 0.0143582, Final residual = 0.000701383, No Iterations 4
GAMG:  Solving for p, Initial residual = 0.111873, Final residual = 0.0072215, No Iterations 4
time step continuity errors : sum local = 3.03481e-05, global = -7.02449e-06, cumulative = -0.000476472
smoothSolver:  Solving for nuTilda, Initial residual = 0.0146134, Final residual = 0.000390262, No Iterations 4
ExecutionTime = 1.73 s  ClockTime = 2 s

Time = 38

smoothSolver:  Solving for Ux, Initial residual = 0.00990636, Final residual = 0.000385928, No Iterations 4
smoothSolver:  Solving for Uy, Initial residual = 0.0141057, Final residual = 0.000709624, No Iterations 4
GAMG:  Solving for p, Initial residual = 0.104543, Final residual = 0.00613549, No Iterations 4
time step continuity errors : sum local = 2.69829e-05, global = -5.27254e-06, cumulative = -0.000481745
smoothSolver:  Solving for nuTilda, Initial residual = 0.0144132, Final residual = 0.00039067, No Iterations 4
ExecutionTime = 1.77 s  ClockTime = 2 s

Time = 39

smoothSolver:  Solving for Ux, Initial residual = 0.00975193, Final residual = 0.000365657, No Iterations 4
smoothSolver:  Solving for Uy, Initial residual = 0.0138224, Final residual = 0.000689745, No Iterations 4
GAMG:  Solving for p, Initial residual = 0.101217, Final residual = 0.0067585, No Iterations 4
time step continuity errors : sum local = 3.01059e-05, global = -5.5903e-06, cumulative = -0.000487335
smoothSolver:  Solving for nuTilda, Initial residual = 0.014222, Final residual = 0.000392376, No Iterations 4
ExecutionTime = 1.8 s  ClockTime = 2 s

Time = 40

smoothSolver:  Solving for Ux, Initial residual = 0.00950021, Final residual = 0.000352854, No Iterations 4
smoothSolver:  Solving for Uy, Initial residual = 0.0135403, Final residual = 0.000644292, No Iterations 4
GAMG:  Solving for p, Initial residual = 0.0991384, Final residual = 0.00724473, No Iterations 4
time step continuity errors : sum local = 3.1537e-05, global = -5.80427e-06, cumulative = -0.000493139
smoothSolver:  Solving for nuTilda, Initial residual = 0.014051, Final residual = 0.000393021, No Iterations 4
ExecutionTime = 1.9 s  ClockTime = 3 s

forces airfoil write:
    sum of forces:
        pressure : (-6.79776 205.862 2.96335e-15)
        viscous  : (-0.0573879 0.0942825 4.72617e-17)
        porous   : (0 0 0)
    sum of moments:
        pressure : (-5.14656 -0.169944 -655.85)
        viscous  : (-0.00235706 -0.0014347 0.439415)
        porous   : (0 0 0)

Time = 41

smoothSolver:  Solving for Ux, Initial residual = 0.00925, Final residual = 0.000357423, No Iterations 4
smoothSolver:  Solving for Uy, Initial residual = 0.0133707, Final residual = 0.000608466, No Iterations 4
GAMG:  Solving for p, Initial residual = 0.0971766, Final residual = 0.00659449, No Iterations 4
time step continuity errors : sum local = 2.76861e-05, global = -4.99942e-06, cumulative = -0.000498139
smoothSolver:  Solving for nuTilda, Initial residual = 0.0138851, Final residual = 0.000393256, No Iterations 4
ExecutionTime = 1.94 s  ClockTime = 3 s

Time = 42

smoothSolver:  Solving for Ux, Initial residual = 0.00905234, Final residual = 0.000362589, No Iterations 4
smoothSolver:  Solving for Uy, Initial residual = 0.0134351, Final residual = 0.000609051, No Iterations 4
GAMG:  Solving for p, Initial residual = 0.0929841, Final residual = 0.00593879, No Iterations 4
time step continuity errors : sum local = 2.4534e-05, global = -4.62785e-06, cumulative = -0.000502766
smoothSolver:  Solving for nuTilda, Initial residual = 0.0137345, Final residual = 0.000393996, No Iterations 4
ExecutionTime = 1.98 s  ClockTime = 3 s

Time = 43

smoothSolver:  Solving for Ux, Initial residual = 0.00889792, Final residual = 0.000358993, No Iterations 4
smoothSolver:  Solving for Uy, Initial residual = 0.0133201, Final residual = 0.000620242, No Iterations 4
GAMG:  Solving for p, Initial residual = 0.0870832, Final residual = 0.00592087, No Iterations 4
time step continuity errors : sum local = 2.48964e-05, global = -4.91473e-06, cumulative = -0.000507681
smoothSolver:  Solving for nuTilda, Initial residual = 0.0135941, Final residual = 0.000395174, No Iterations 4
ExecutionTime = 2.03 s  ClockTime = 3 s

Time = 44

smoothSolver:  Solving for Ux, Initial residual = 0.00872482, Final residual = 0.000347045, No Iterations 4
smoothSolver:  Solving for Uy, Initial residual = 0.0130822, Final residual = 0.000623292, No Iterations 4
GAMG:  Solving for p, Initial residual = 0.0813372, Final residual = 0.00556874, No Iterations 4
time step continuity errors : sum local = 2.44381e-05, global = -4.45873e-06, cumulative = -0.00051214
smoothSolver:  Solving for nuTilda, Initial residual = 0.013475, Final residual = 0.000396686, No Iterations 4
ExecutionTime = 2.07 s  ClockTime = 3 s

Time = 45

smoothSolver:  Solving for Ux, Initial residual = 0.00855937, Final residual = 0.000334121, No Iterations 4
smoothSolver:  Solving for Uy, Initial residual = 0.0129381, Final residual = 0.000618686, No Iterations 4
GAMG:  Solving for p, Initial residual = 0.076934, Final residual = 0.00510288, No Iterations 4
time step continuity errors : sum local = 2.32688e-05, global = -2.66198e-06, cumulative = -0.000514802
smoothSolver:  Solving for nuTilda, Initial residual = 0.0133526, Final residual = 0.000397689, No Iterations 4
ExecutionTime = 2.11 s  ClockTime = 3 s

forces airfoil write:
    sum of forces:
        pressure : (0.182121 208.1 5.25031e-15)
        viscous  : (-0.0632656 0.0890398 4.01337e-17)
        porous   : (0 0 0)
    sum of moments:
        pressure : (-5.20249 0.00455301 -562.059)
        viscous  : (-0.00222599 -0.00158164 0.625203)
        porous   : (0 0 0)

Time = 46

smoothSolver:  Solving for Ux, Initial residual = 0.00838863, Final residual = 0.000325962, No Iterations 4
smoothSolver:  Solving for Uy, Initial residual = 0.0127342, Final residual = 0.0006005, No Iterations 4
GAMG:  Solving for p, Initial residual = 0.074452, Final residual = 0.00496862, No Iterations 4
time step continuity errors : sum local = 2.29567e-05, global = -1.25855e-06, cumulative = -0.00051606
smoothSolver:  Solving for nuTilda, Initial residual = 0.0132384, Final residual = 0.000398642, No Iterations 4
ExecutionTime = 2.14 s  ClockTime = 3 s

Time = 47

smoothSolver:  Solving for Ux, Initial residual = 0.00818706, Final residual = 0.000319624, No Iterations 4
smoothSolver:  Solving for Uy, Initial residual = 0.0124707, Final residual = 0.000574782, No Iterations 4
GAMG:  Solving for p, Initial residual = 0.0727917, Final residual = 0.00502527, No Iterations 4
time step continuity errors : sum local = 2.3008e-05, global = -2.57182e-07, cumulative = -0.000516318
smoothSolver:  Solving for nuTilda, Initial residual = 0.0131534, Final residual = 0.000400116, No Iterations 4
ExecutionTime = 2.18 s  ClockTime = 3 s

Time = 48

smoothSolver:  Solving for Ux, Initial residual = 0.00802141, Final residual = 0.000319327, No Iterations 4
smoothSolver:  Solving for Uy, Initial residual = 0.0122764, Final residual = 0.000555889, No Iterations 4
GAMG:  Solving for p, Initial residual = 0.0715963, Final residual = 0.00486769, No Iterations 4
time step continuity errors : sum local = 2.18635e-05, global = 2.21994e-07, cumulative = -0.000516096
smoothSolver:  Solving for nuTilda, Initial residual = 0.0130521, Final residual = 0.000400525, No Iterations 4
ExecutionTime = 2.22 s  ClockTime = 3 s

Time = 49

smoothSolver:  Solving for Ux, Initial residual = 0.00792019, Final residual = 0.000321852, No Iterations 4
smoothSolver:  Solving for Uy, Initial residual = 0.0122105, Final residual = 0.000553381, No Iterations 4
GAMG:  Solving for p, Initial residual = 0.069743, Final residual = 0.0047094, No Iterations 4
time step continuity errors : sum local = 2.0917e-05, global = -4.99538e-07, cumulative = -0.000516595
smoothSolver:  Solving for nuTilda, Initial residual = 0.0129627, Final residual = 0.000399815, No Iterations 4
ExecutionTime = 2.26 s  ClockTime = 3 s

Time = 50

smoothSolver:  Solving for Ux, Initial residual = 0.00783636, Final residual = 0.000321796, No Iterations 4
smoothSolver:  Solving for Uy, Initial residual = 0.0121786, Final residual = 0.000558113, No Iterations 4
GAMG:  Solving for p, Initial residual = 0.067213, Final residual = 0.00486784, No Iterations 4
time step continuity errors : sum local = 2.18046e-05, global = -2.83568e-06, cumulative = -0.000519431
smoothSolver:  Solving for nuTilda, Initial residual = 0.0128861, Final residual = 0.000400341, No Iterations 4
ExecutionTime = 2.29 s  ClockTime = 3 s

forces airfoil write:
    sum of forces:
        pressure : (7.50863 211.996 7.86916e-15)
        viscous  : (-0.0478464 0.083927 2.88411e-17)
        porous   : (0 0 0)
    sum of moments:
        pressure : (-5.2999 0.187716 -456.357)
        viscous  : (-0.00209817 -0.00119616 0.738129)
        porous   : (0 0 0)

Time = 51

smoothSolver:  Solving for Ux, Initial residual = 0.00774677, Final residual = 0.00031796, No Iterations 4
smoothSolver:  Solving for Uy, Initial residual = 0.0121216, Final residual = 0.000560289, No Iterations 4
GAMG:  Solving for p, Initial residual = 0.0649754, Final residual = 0.00456846, No Iterations 4
time step continuity errors : sum local = 2.10355e-05, global = -3.49492e-06, cumulative = -0.000522926
smoothSolver:  Solving for nuTilda, Initial residual = 0.0128142, Final residual = 0.000399847, No Iterations 4
ExecutionTime = 2.34 s  ClockTime = 3 s

Time = 52

smoothSolver:  Solving for Ux, Initial residual = 0.00765686, Final residual = 0.000313966, No Iterations 4
smoothSolver:  Solving for Uy, Initial residual = 0.0120731, Final residual = 0.000556571, No Iterations 4
GAMG:  Solving for p, Initial residual = 0.0620675, Final residual = 0.00418692, No Iterations 4
time step continuity errors : sum local = 1.98406e-05, global = -2.70784e-06, cumulative = -0.000525634
smoothSolver:  Solving for nuTilda, Initial residual = 0.012723, Final residual = 0.000397987, No Iterations 4
ExecutionTime = 2.37 s  ClockTime = 3 s

Time = 53

smoothSolver:  Solving for Ux, Initial residual = 0.00756938, Final residual = 0.000311879, No Iterations 4
smoothSolver:  Solving for Uy, Initial residual = 0.0120051, Final residual = 0.000548154, No Iterations 4
GAMG:  Solving for p, Initial residual = 0.0595307, Final residual = 0.00402866, No Iterations 4
time step continuity errors : sum local = 1.93928e-05, global = -3.61735e-07, cumulative = -0.000525995
smoothSolver:  Solving for nuTilda, Initial residual = 0.0126542, Final residual = 0.000396525, No Iterations 4
ExecutionTime = 2.41 s  ClockTime = 3 s

Time = 54

smoothSolver:  Solving for Ux, Initial residual = 0.00747869, Final residual = 0.000310087, No Iterations 4
smoothSolver:  Solving for Uy, Initial residual = 0.0118969, Final residual = 0.000539851, No Iterations 4
GAMG:  Solving for p, Initial residual = 0.0578598, Final residual = 0.00415082, No Iterations 4
time step continuity errors : sum local = 1.99948e-05, global = 1.97259e-06, cumulative = -0.000524023
smoothSolver:  Solving for nuTilda, Initial residual = 0.0125694, Final residual = 0.000394801, No Iterations 4
ExecutionTime = 2.45 s  ClockTime = 3 s

Time = 55

smoothSolver:  Solving for Ux, Initial residual = 0.00738022, Final residual = 0.000308743, No Iterations 4
smoothSolver:  Solving for Uy, Initial residual = 0.0118038, Final residual = 0.000533844, No Iterations 4
GAMG:  Solving for p, Initial residual = 0.0574607, Final residual = 0.00432344, No Iterations 4
time step continuity errors : sum local = 2.06681e-05, global = 3.98134e-06, cumulative = -0.000520041
smoothSolver:  Solving for nuTilda, Initial residual = 0.0124829, Final residual = 0.000391195, No Iterations 4
ExecutionTime = 2.49 s  ClockTime = 3 s

forces airfoil write:
    sum of forces:
        pressure : (13.8962 211.097 1.07247e-14)
        viscous  : (-0.0126877 0.0786004 2.27166e-17)
        porous   : (0 0 0)
    sum of moments:
        pressure : (-5.27743 0.347406 -322.019)
        viscous  : (-0.00196501 -0.000317192 0.788589)
        porous   : (0 0 0)

Time = 56

smoothSolver:  Solving for Ux, Initial residual = 0.00730888, Final residual = 0.000308534, No Iterations 4
smoothSolver:  Solving for Uy, Initial residual = 0.0117768, Final residual = 0.000534886, No Iterations 4
GAMG:  Solving for p, Initial residual = 0.0572348, Final residual = 0.00448064, No Iterations 4
time step continuity errors : sum local = 2.12833e-05, global = 4.74183e-06, cumulative = -0.0005153
smoothSolver:  Solving for nuTilda, Initial residual = 0.0123852, Final residual = 0.000387795, No Iterations 4
ExecutionTime = 2.53 s  ClockTime = 3 s

Time = 57

smoothSolver:  Solving for Ux, Initial residual = 0.00725382, Final residual = 0.000309124, No Iterations 4
smoothSolver:  Solving for Uy, Initial residual = 0.0118053, Final residual = 0.000541137, No Iterations 4
GAMG:  Solving for p, Initial residual = 0.0569622, Final residual = 0.00466015, No Iterations 4
time step continuity errors : sum local = 2.2196e-05, global = 5.19619e-06, cumulative = -0.000510103
smoothSolver:  Solving for nuTilda, Initial residual = 0.012307, Final residual = 0.000384897, No Iterations 4
ExecutionTime = 2.57 s  ClockTime = 3 s

Time = 58

smoothSolver:  Solving for Ux, Initial residual = 0.00722307, Final residual = 0.000310598, No Iterations 4
smoothSolver:  Solving for Uy, Initial residual = 0.0118893, Final residual = 0.000551644, No Iterations 4
GAMG:  Solving for p, Initial residual = 0.0557278, Final residual = 0.00461916, No Iterations 4
time step continuity errors : sum local = 2.2323e-05, global = 4.42668e-06, cumulative = -0.000505677
smoothSolver:  Solving for nuTilda, Initial residual = 0.0122171, Final residual = 0.000380106, No Iterations 4
ExecutionTime = 2.6 s  ClockTime = 3 s

Time = 59

smoothSolver:  Solving for Ux, Initial residual = 0.00721432, Final residual = 0.000313071, No Iterations 4
smoothSolver:  Solving for Uy, Initial residual = 0.0119982, Final residual = 0.000560586, No Iterations 4
GAMG:  Solving for p, Initial residual = 0.0542294, Final residual = 0.00422674, No Iterations 4
time step continuity errors : sum local = 2.08475e-05, global = 2.85313e-06, cumulative = -0.000502823
smoothSolver:  Solving for nuTilda, Initial residual = 0.0121131, Final residual = 0.00037538, No Iterations 4
ExecutionTime = 2.64 s  ClockTime = 3 s

Time = 60

smoothSolver:  Solving for Ux, Initial residual = 0.00720629, Final residual = 0.000315823, No Iterations 4
smoothSolver:  Solving for Uy, Initial residual = 0.0120775, Final residual = 0.000565743, No Iterations 4
GAMG:  Solving for p, Initial residual = 0.0534122, Final residual = 0.00397266, No Iterations 4
time step continuity errors : sum local = 1.99707e-05, global = 2.14236e-06, cumulative = -0.000500681
smoothSolver:  Solving for nuTilda, Initial residual = 0.0120056, Final residual = 0.000370373, No Iterations 4
ExecutionTime = 2.75 s  ClockTime = 3 s

forces airfoil write:
    sum of forces:
        pressure : (18.9073 203.331 1.38805e-14)
        viscous  : (0.0411307 0.0731614 1.07379e-17)
        porous   : (0 0 0)
    sum of moments:
        pressure : (-5.08327 0.472683 -186.538)
        viscous  : (-0.00182903 0.00102827 0.772479)
        porous   : (0 0 0)

Time = 61

smoothSolver:  Solving for Ux, Initial residual = 0.00718183, Final residual = 0.000317752, No Iterations 4
smoothSolver:  Solving for Uy, Initial residual = 0.0120843, Final residual = 0.000565007, No Iterations 4
GAMG:  Solving for p, Initial residual = 0.0532995, Final residual = 0.00419172, No Iterations 4
time step continuity errors : sum local = 2.13227e-05, global = 3.87762e-06, cumulative = -0.000496804
smoothSolver:  Solving for nuTilda, Initial residual = 0.0118821, Final residual = 0.000363765, No Iterations 4
ExecutionTime = 2.79 s  ClockTime = 3 s

Time = 62

smoothSolver:  Solving for Ux, Initial residual = 0.0071412, Final residual = 0.000318823, No Iterations 4
smoothSolver:  Solving for Uy, Initial residual = 0.0120519, Final residual = 0.000562605, No Iterations 4
GAMG:  Solving for p, Initial residual = 0.0531084, Final residual = 0.00459269, No Iterations 4
time step continuity errors : sum local = 2.34277e-05, global = 5.80055e-06, cumulative = -0.000491003
smoothSolver:  Solving for nuTilda, Initial residual = 0.0117645, Final residual = 0.000358138, No Iterations 4
ExecutionTime = 2.83 s  ClockTime = 4 s

Time = 63

smoothSolver:  Solving for Ux, Initial residual = 0.00710375, Final residual = 0.000320388, No Iterations 4
smoothSolver:  Solving for Uy, Initial residual = 0.012024, Final residual = 0.000562568, No Iterations 4
GAMG:  Solving for p, Initial residual = 0.0541074, Final residual = 0.00471802, No Iterations 4
time step continuity errors : sum local = 2.40636e-05, global = 6.90155e-06, cumulative = -0.000484101
smoothSolver:  Solving for nuTilda, Initial residual = 0.0116592, Final residual = 0.000352568, No Iterations 4
ExecutionTime = 2.87 s  ClockTime = 4 s

Time = 64

smoothSolver:  Solving for Ux, Initial residual = 0.00707636, Final residual = 0.000323392, No Iterations 4
smoothSolver:  Solving for Uy, Initial residual = 0.0120617, Final residual = 0.000567771, No Iterations 4
GAMG:  Solving for p, Initial residual = 0.054354, Final residual = 0.00475649, No Iterations 4
time step continuity errors : sum local = 2.43146e-05, global = 7.5302e-06, cumulative = -0.000476571
smoothSolver:  Solving for nuTilda, Initial residual = 0.0115439, Final residual = 0.000353584, No Iterations 4
ExecutionTime = 2.91 s  ClockTime = 4 s

Time = 65

smoothSolver:  Solving for Ux, Initial residual = 0.00706679, Final residual = 0.000328129, No Iterations 4
smoothSolver:  Solving for Uy, Initial residual = 0.0121235, Final residual = 0.000577321, No Iterations 4
GAMG:  Solving for p, Initial residual = 0.0540937, Final residual = 0.0047702, No Iterations 4
time step continuity errors : sum local = 2.45589e-05, global = 7.78545e-06, cumulative = -0.000468786
smoothSolver:  Solving for nuTilda, Initial residual = 0.0114839, Final residual = 0.000357771, No Iterations 4
ExecutionTime = 2.95 s  ClockTime = 4 s

forces airfoil write:
    sum of forces:
        pressure : (22.3653 188.69 1.72829e-14)
        viscous  : (0.105497 0.0670726 -4.28371e-19)
        porous   : (0 0 0)
    sum of moments:
        pressure : (-4.71724 0.559132 -65.2957)
        viscous  : (-0.00167681 0.00263742 0.717071)
        porous   : (0 0 0)

Time = 66

smoothSolver:  Solving for Ux, Initial residual = 0.00708455, Final residual = 0.00033471, No Iterations 4
smoothSolver:  Solving for Uy, Initial residual = 0.0122335, Final residual = 0.000589125, No Iterations 4
GAMG:  Solving for p, Initial residual = 0.0541112, Final residual = 0.00468588, No Iterations 4
time step continuity errors : sum local = 2.44041e-05, global = 7.51221e-06, cumulative = -0.000461274
smoothSolver:  Solving for nuTilda, Initial residual = 0.0114338, Final residual = 0.000365274, No Iterations 4
ExecutionTime = 2.99 s  ClockTime = 4 s

Time = 67

smoothSolver:  Solving for Ux, Initial residual = 0.0071091, Final residual = 0.000342392, No Iterations 4
smoothSolver:  Solving for Uy, Initial residual = 0.0123169, Final residual = 0.000600339, No Iterations 4
GAMG:  Solving for p, Initial residual = 0.0538867, Final residual = 0.00458211, No Iterations 4
time step continuity errors : sum local = 2.41932e-05, global = 7.06969e-06, cumulative = -0.000454204
smoothSolver:  Solving for nuTilda, Initial residual = 0.0114041, Final residual = 0.000376275, No Iterations 4
ExecutionTime = 3.03 s  ClockTime = 4 s

Time = 68

smoothSolver:  Solving for Ux, Initial residual = 0.0071343, Final residual = 0.00035054, No Iterations 4
smoothSolver:  Solving for Uy, Initial residual = 0.0124105, Final residual = 0.000611037, No Iterations 4
GAMG:  Solving for p, Initial residual = 0.0538875, Final residual = 0.00456257, No Iterations 4
time step continuity errors : sum local = 2.43826e-05, global = 6.65348e-06, cumulative = -0.00044755
smoothSolver:  Solving for nuTilda, Initial residual = 0.0114193, Final residual = 0.000392361, No Iterations 4
ExecutionTime = 3.07 s  ClockTime = 4 s

Time = 69

smoothSolver:  Solving for Ux, Initial residual = 0.00716485, Final residual = 0.000359109, No Iterations 4
smoothSolver:  Solving for Uy, Initial residual = 0.012493, Final residual = 0.000622321, No Iterations 4
GAMG:  Solving for p, Initial residual = 0.0543434, Final residual = 0.00464877, No Iterations 4
time step continuity errors : sum local = 2.50313e-05, global = 6.33292e-06, cumulative = -0.000441217
smoothSolver:  Solving for nuTilda, Initial residual = 0.011443, Final residual = 0.000409641, No Iterations 4
ExecutionTime = 3.11 s  ClockTime = 4 s

Time = 70

smoothSolver:  Solving for Ux, Initial residual = 0.00720492, Final residual = 0.000367967, No Iterations 4
smoothSolver:  Solving for Uy, Initial residual = 0.0125823, Final residual = 0.000636766, No Iterations 4
GAMG:  Solving for p, Initial residual = 0.0549707, Final residual = 0.00471866, No Iterations 4
time step continuity errors : sum local = 2.55004e-05, global = 6.41227e-06, cumulative = -0.000434805
smoothSolver:  Solving for nuTilda, Initial residual = 0.011521, Final residual = 0.000428952, No Iterations 4
ExecutionTime = 3.14 s  ClockTime = 4 s

forces airfoil write:
    sum of forces:
        pressure : (24.4777 165.952 2.14312e-14)
        viscous  : (0.177081 0.0592989 -8.62909e-17)
        porous   : (0 0 0)
    sum of moments:
        pressure : (-4.14881 0.611942 30.8759)
        viscous  : (-0.00148247 0.00442702 0.616904)
        porous   : (0 0 0)

Time = 71

smoothSolver:  Solving for Ux, Initial residual = 0.00726551, Final residual = 0.000377869, No Iterations 4
smoothSolver:  Solving for Uy, Initial residual = 0.0127337, Final residual = 0.000657135, No Iterations 4
GAMG:  Solving for p, Initial residual = 0.0556677, Final residual = 0.0047289, No Iterations 4
time step continuity errors : sum local = 2.5607e-05, global = 6.58704e-06, cumulative = -0.000428218
smoothSolver:  Solving for nuTilda, Initial residual = 0.0116021, Final residual = 0.000447449, No Iterations 4
ExecutionTime = 3.18 s  ClockTime = 4 s

Time = 72

smoothSolver:  Solving for Ux, Initial residual = 0.00735853, Final residual = 0.000389511, No Iterations 4
smoothSolver:  Solving for Uy, Initial residual = 0.0129407, Final residual = 0.000683839, No Iterations 4
GAMG:  Solving for p, Initial residual = 0.0564444, Final residual = 0.004758, No Iterations 4
time step continuity errors : sum local = 2.58036e-05, global = 6.8943e-06, cumulative = -0.000421324
smoothSolver:  Solving for nuTilda, Initial residual = 0.0116868, Final residual = 0.000467057, No Iterations 4
ExecutionTime = 3.22 s  ClockTime = 4 s

Time = 73

smoothSolver:  Solving for Ux, Initial residual = 0.00748633, Final residual = 0.000402806, No Iterations 4
smoothSolver:  Solving for Uy, Initial residual = 0.0131989, Final residual = 0.000716588, No Iterations 4
GAMG:  Solving for p, Initial residual = 0.0567734, Final residual = 0.00483965, No Iterations 4
time step continuity errors : sum local = 2.6338e-05, global = 7.46539e-06, cumulative = -0.000413858
smoothSolver:  Solving for nuTilda, Initial residual = 0.011791, Final residual = 0.00048605, No Iterations 4
ExecutionTime = 3.26 s  ClockTime = 4 s

Time = 74

smoothSolver:  Solving for Ux, Initial residual = 0.00764621, Final residual = 0.000417663, No Iterations 4
smoothSolver:  Solving for Uy, Initial residual = 0.0134806, Final residual = 0.000753672, No Iterations 4
GAMG:  Solving for p, Initial residual = 0.0571866, Final residual = 0.00496922, No Iterations 4
time step continuity errors : sum local = 2.71627e-05, global = 8.39191e-06, cumulative = -0.000405467
smoothSolver:  Solving for nuTilda, Initial residual = 0.0119009, Final residual = 0.000499225, No Iterations 4
ExecutionTime = 3.3 s  ClockTime = 4 s

Time = 75

smoothSolver:  Solving for Ux, Initial residual = 0.00782913, Final residual = 0.000433088, No Iterations 4
smoothSolver:  Solving for Uy, Initial residual = 0.0138276, Final residual = 0.000794544, No Iterations 4
GAMG:  Solving for p, Initial residual = 0.0575436, Final residual = 0.0049462, No Iterations 4
time step continuity errors : sum local = 2.71338e-05, global = 8.64098e-06, cumulative = -0.000396826
smoothSolver:  Solving for nuTilda, Initial residual = 0.0120564, Final residual = 0.000511304, No Iterations 4
ExecutionTime = 3.34 s  ClockTime = 4 s

forces airfoil write:
    sum of forces:
        pressure : (26.3747 136.439 2.63648e-14)
        viscous  : (0.258569 0.0484645 -1.7354e-16)
        porous   : (0 0 0)
    sum of moments:
        pressure : (-3.41096 0.659367 118.43)
        viscous  : (-0.00121161 0.00646422 0.479235)
        porous   : (0 0 0)

Time = 76

smoothSolver:  Solving for Ux, Initial residual = 0.00803079, Final residual = 0.000448946, No Iterations 4
smoothSolver:  Solving for Uy, Initial residual = 0.0142375, Final residual = 0.000838478, No Iterations 4
GAMG:  Solving for p, Initial residual = 0.0579457, Final residual = 0.00482297, No Iterations 4
time step continuity errors : sum local = 2.65032e-05, global = 8.20966e-06, cumulative = -0.000388616
smoothSolver:  Solving for nuTilda, Initial residual = 0.0122426, Final residual = 0.000519888, No Iterations 4
ExecutionTime = 3.38 s  ClockTime = 4 s

Time = 77

smoothSolver:  Solving for Ux, Initial residual = 0.00825589, Final residual = 0.000464386, No Iterations 4
smoothSolver:  Solving for Uy, Initial residual = 0.0146905, Final residual = 0.000884048, No Iterations 4
GAMG:  Solving for p, Initial residual = 0.0590406, Final residual = 0.00475145, No Iterations 4
time step continuity errors : sum local = 2.60781e-05, global = 7.48922e-06, cumulative = -0.000381127
smoothSolver:  Solving for nuTilda, Initial residual = 0.0124682, Final residual = 0.00052605, No Iterations 4
ExecutionTime = 3.41 s  ClockTime = 4 s

Time = 78

smoothSolver:  Solving for Ux, Initial residual = 0.00850411, Final residual = 0.000479627, No Iterations 4
smoothSolver:  Solving for Uy, Initial residual = 0.0152112, Final residual = 0.000931636, No Iterations 4
GAMG:  Solving for p, Initial residual = 0.0602987, Final residual = 0.00482888, No Iterations 4
time step continuity errors : sum local = 2.63874e-05, global = 7.3103e-06, cumulative = -0.000373816
smoothSolver:  Solving for nuTilda, Initial residual = 0.0126923, Final residual = 0.000530026, No Iterations 4
bounding nuTilda, min: -0.00547273 max: 4.03278 average: 0.218586
ExecutionTime = 3.45 s  ClockTime = 4 s

Time = 79

smoothSolver:  Solving for Ux, Initial residual = 0.0087793, Final residual = 0.000494592, No Iterations 4
smoothSolver:  Solving for Uy, Initial residual = 0.0157814, Final residual = 0.000980375, No Iterations 4
GAMG:  Solving for p, Initial residual = 0.0618594, Final residual = 0.00502181, No Iterations 4
time step continuity errors : sum local = 2.71931e-05, global = 7.66118e-06, cumulative = -0.000366155
smoothSolver:  Solving for nuTilda, Initial residual = 0.0129411, Final residual = 0.000530177, No Iterations 4
bounding nuTilda, min: -0.0243395 max: 4.16415 average: 0.220898
ExecutionTime = 3.49 s  ClockTime = 4 s

Time = 80

smoothSolver:  Solving for Ux, Initial residual = 0.00909439, Final residual = 0.000509914, No Iterations 4
smoothSolver:  Solving for Uy, Initial residual = 0.0163968, Final residual = 0.00103191, No Iterations 4
GAMG:  Solving for p, Initial residual = 0.0635065, Final residual = 0.00530223, No Iterations 4
time step continuity errors : sum local = 2.83393e-05, global = 8.42367e-06, cumulative = -0.000357732
smoothSolver:  Solving for nuTilda, Initial residual = 0.0132191, Final residual = 0.000530466, No Iterations 4
bounding nuTilda, min: -0.00970531 max: 4.27972 average: 0.223389
ExecutionTime = 3.6 s  ClockTime = 4 s

forces airfoil write:
    sum of forces:
        pressure : (28.7714 107.436 3.07325e-14)
        viscous  : (0.345412 0.0358943 -2.2364e-16)
        porous   : (0 0 0)
    sum of moments:
        pressure : (-2.68591 0.719285 219.219)
        viscous  : (-0.000897358 0.00863529 0.341513)
        porous   : (0 0 0)

Time = 81

smoothSolver:  Solving for Ux, Initial residual = 0.00943249, Final residual = 0.000525107, No Iterations 4
smoothSolver:  Solving for Uy, Initial residual = 0.0170553, Final residual = 0.00108245, No Iterations 4
GAMG:  Solving for p, Initial residual = 0.065445, Final residual = 0.00566845, No Iterations 4
time step continuity errors : sum local = 2.98879e-05, global = 9.30187e-06, cumulative = -0.00034843
smoothSolver:  Solving for nuTilda, Initial residual = 0.0135327, Final residual = 0.000531472, No Iterations 4
bounding nuTilda, min: -0.0115821 max: 4.41318 average: 0.226052
ExecutionTime = 3.64 s  ClockTime = 4 s

Time = 82

smoothSolver:  Solving for Ux, Initial residual = 0.00979867, Final residual = 0.000539582, No Iterations 4
smoothSolver:  Solving for Uy, Initial residual = 0.0177523, Final residual = 0.00112967, No Iterations 4
GAMG:  Solving for p, Initial residual = 0.0671424, Final residual = 0.00610847, No Iterations 4
time step continuity errors : sum local = 3.17823e-05, global = 9.94636e-06, cumulative = -0.000338483
smoothSolver:  Solving for nuTilda, Initial residual = 0.0138885, Final residual = 0.000533793, No Iterations 4
bounding nuTilda, min: -0.0188897 max: 4.53108 average: 0.228903
ExecutionTime = 3.68 s  ClockTime = 4 s

Time = 83

smoothSolver:  Solving for Ux, Initial residual = 0.0101819, Final residual = 0.000552857, No Iterations 4
smoothSolver:  Solving for Uy, Initial residual = 0.0184751, Final residual = 0.00117145, No Iterations 4
GAMG:  Solving for p, Initial residual = 0.0689519, Final residual = 0.00658737, No Iterations 4
time step continuity errors : sum local = 3.38061e-05, global = 1.01172e-05, cumulative = -0.000328366
smoothSolver:  Solving for nuTilda, Initial residual = 0.0143417, Final residual = 0.00053804, No Iterations 4
bounding nuTilda, min: -0.0739351 max: 4.654 average: 0.231922
ExecutionTime = 3.72 s  ClockTime = 4 s

Time = 84

smoothSolver:  Solving for Ux, Initial residual = 0.0105845, Final residual = 0.000565006, No Iterations 4
smoothSolver:  Solving for Uy, Initial residual = 0.0192384, Final residual = 0.00120851, No Iterations 4
GAMG:  Solving for p, Initial residual = 0.0705617, Final residual = 0.00699284, No Iterations 4
time step continuity errors : sum local = 3.54075e-05, global = 1.00015e-05, cumulative = -0.000318365
smoothSolver:  Solving for nuTilda, Initial residual = 0.0148765, Final residual = 0.000546312, No Iterations 4
bounding nuTilda, min: -0.0537536 max: 4.77054 average: 0.235122
ExecutionTime = 3.75 s  ClockTime = 4 s

Time = 85

smoothSolver:  Solving for Ux, Initial residual = 0.01099, Final residual = 0.000576214, No Iterations 4
smoothSolver:  Solving for Uy, Initial residual = 0.0199992, Final residual = 0.00124057, No Iterations 4
GAMG:  Solving for p, Initial residual = 0.0726771, Final residual = 0.00392831, No Iterations 5
time step continuity errors : sum local = 1.96317e-05, global = -4.07898e-06, cumulative = -0.000322444
smoothSolver:  Solving for nuTilda, Initial residual = 0.0154785, Final residual = 0.000558005, No Iterations 4
bounding nuTilda, min: -0.00952202 max: 4.88226 average: 0.238462
ExecutionTime = 3.8 s  ClockTime = 5 s

forces airfoil write:
    sum of forces:
        pressure : (31.382 84.9969 3.21484e-14)
        viscous  : (0.417137 0.0260282 -2.29283e-16)
        porous   : (0 0 0)
    sum of moments:
        pressure : (-2.12492 0.784551 322.188)
        viscous  : (-0.000650705 0.0104284 0.260524)
        porous   : (0 0 0)

Time = 86

smoothSolver:  Solving for Ux, Initial residual = 0.0114409, Final residual = 0.000588149, No Iterations 4
smoothSolver:  Solving for Uy, Initial residual = 0.020772, Final residual = 0.0012727, No Iterations 4
GAMG:  Solving for p, Initial residual = 0.0738675, Final residual = 0.00365218, No Iterations 5
time step continuity errors : sum local = 1.81326e-05, global = -3.51509e-06, cumulative = -0.000325959
smoothSolver:  Solving for nuTilda, Initial residual = 0.0161418, Final residual = 0.000571385, No Iterations 4
bounding nuTilda, min: -0.0797986 max: 4.99111 average: 0.241909
ExecutionTime = 3.84 s  ClockTime = 5 s

Time = 87

smoothSolver:  Solving for Ux, Initial residual = 0.0118597, Final residual = 0.000597997, No Iterations 4
smoothSolver:  Solving for Uy, Initial residual = 0.0214504, Final residual = 0.00129529, No Iterations 4
GAMG:  Solving for p, Initial residual = 0.0758867, Final residual = 0.00351258, No Iterations 5
time step continuity errors : sum local = 1.7274e-05, global = -3.32233e-06, cumulative = -0.000329281
smoothSolver:  Solving for nuTilda, Initial residual = 0.0168199, Final residual = 0.000584675, No Iterations 4
bounding nuTilda, min: -0.0468236 max: 5.09132 average: 0.245441
ExecutionTime = 3.88 s  ClockTime = 5 s

Time = 88

smoothSolver:  Solving for Ux, Initial residual = 0.0122713, Final residual = 0.000606921, No Iterations 4
smoothSolver:  Solving for Uy, Initial residual = 0.0220317, Final residual = 0.0013149, No Iterations 4
GAMG:  Solving for p, Initial residual = 0.0759716, Final residual = 0.00340668, No Iterations 5
time step continuity errors : sum local = 1.66165e-05, global = -3.07764e-06, cumulative = -0.000332359
smoothSolver:  Solving for nuTilda, Initial residual = 0.017601, Final residual = 0.000594956, No Iterations 4
bounding nuTilda, min: -0.00735713 max: 5.18443 average: 0.249033
ExecutionTime = 3.92 s  ClockTime = 5 s

Time = 89

smoothSolver:  Solving for Ux, Initial residual = 0.0126375, Final residual = 0.000615077, No Iterations 4
smoothSolver:  Solving for Uy, Initial residual = 0.0225477, Final residual = 0.00133093, No Iterations 4
GAMG:  Solving for p, Initial residual = 0.0755192, Final residual = 0.00342672, No Iterations 5
time step continuity errors : sum local = 1.66734e-05, global = -2.7575e-06, cumulative = -0.000335116
smoothSolver:  Solving for nuTilda, Initial residual = 0.0183941, Final residual = 0.00060315, No Iterations 4
bounding nuTilda, min: -0.0546761 max: 5.27062 average: 0.252664
ExecutionTime = 3.97 s  ClockTime = 5 s

Time = 90

smoothSolver:  Solving for Ux, Initial residual = 0.0130108, Final residual = 0.000622755, No Iterations 4
smoothSolver:  Solving for Uy, Initial residual = 0.02305, Final residual = 0.00134108, No Iterations 4
GAMG:  Solving for p, Initial residual = 0.0753322, Final residual = 0.00356436, No Iterations 5
time step continuity errors : sum local = 1.73871e-05, global = -2.42312e-06, cumulative = -0.000337539
smoothSolver:  Solving for nuTilda, Initial residual = 0.0191387, Final residual = 0.000606778, No Iterations 4
bounding nuTilda, min: -0.083133 max: 5.37655 average: 0.256325
ExecutionTime = 4.01 s  ClockTime = 5 s

forces airfoil write:
    sum of forces:
        pressure : (32.1038 68.8733 2.93288e-14)
        viscous  : (0.476293 0.0160565 -1.73326e-16)
        porous   : (0 0 0)
    sum of moments:
        pressure : (-1.72183 0.802594 349.259)
        viscous  : (-0.000401412 0.0119073 0.174698)
        porous   : (0 0 0)

Time = 91

smoothSolver:  Solving for Ux, Initial residual = 0.0134015, Final residual = 0.000630788, No Iterations 4
smoothSolver:  Solving for Uy, Initial residual = 0.0235641, Final residual = 0.00134578, No Iterations 4
GAMG:  Solving for p, Initial residual = 0.0753481, Final residual = 0.0038096, No Iterations 5
time step continuity errors : sum local = 1.8671e-05, global = -2.11609e-06, cumulative = -0.000339655
smoothSolver:  Solving for nuTilda, Initial residual = 0.019854, Final residual = 0.000608624, No Iterations 4
bounding nuTilda, min: -0.0462084 max: 5.43026 average: 0.259985
ExecutionTime = 4.05 s  ClockTime = 5 s

Time = 92

smoothSolver:  Solving for Ux, Initial residual = 0.0138297, Final residual = 0.000639247, No Iterations 4
smoothSolver:  Solving for Uy, Initial residual = 0.0240736, Final residual = 0.0013507, No Iterations 4
GAMG:  Solving for p, Initial residual = 0.0759011, Final residual = 0.00409151, No Iterations 5
time step continuity errors : sum local = 2.01927e-05, global = -1.7792e-06, cumulative = -0.000341435
smoothSolver:  Solving for nuTilda, Initial residual = 0.0206128, Final residual = 0.000603185, No Iterations 4
bounding nuTilda, min: -0.0565624 max: 5.51565 average: 0.263588
ExecutionTime = 4.09 s  ClockTime = 5 s

Time = 93

smoothSolver:  Solving for Ux, Initial residual = 0.0142764, Final residual = 0.000648267, No Iterations 4
smoothSolver:  Solving for Uy, Initial residual = 0.0245603, Final residual = 0.0013603, No Iterations 4
GAMG:  Solving for p, Initial residual = 0.07602, Final residual = 0.00434086, No Iterations 5
time step continuity errors : sum local = 2.15761e-05, global = -1.53757e-06, cumulative = -0.000342972
smoothSolver:  Solving for nuTilda, Initial residual = 0.0212772, Final residual = 0.000590228, No Iterations 4
bounding nuTilda, min: -0.0608623 max: 5.55931 average: 0.267143
ExecutionTime = 4.14 s  ClockTime = 5 s

Time = 94

smoothSolver:  Solving for Ux, Initial residual = 0.0147112, Final residual = 0.000656755, No Iterations 4
smoothSolver:  Solving for Uy, Initial residual = 0.0250225, Final residual = 0.00136677, No Iterations 4
GAMG:  Solving for p, Initial residual = 0.0761261, Final residual = 0.0045146, No Iterations 5
time step continuity errors : sum local = 2.26221e-05, global = -1.12217e-06, cumulative = -0.000344094
smoothSolver:  Solving for nuTilda, Initial residual = 0.0219004, Final residual = 0.000573459, No Iterations 4
bounding nuTilda, min: -0.0632916 max: 5.5951 average: 0.270592
ExecutionTime = 4.18 s  ClockTime = 5 s

Time = 95

smoothSolver:  Solving for Ux, Initial residual = 0.0151464, Final residual = 0.000664858, No Iterations 4
smoothSolver:  Solving for Uy, Initial residual = 0.0254425, Final residual = 0.00136834, No Iterations 4
GAMG:  Solving for p, Initial residual = 0.0766412, Final residual = 0.0047631, No Iterations 5
time step continuity errors : sum local = 2.40579e-05, global = -1.33043e-06, cumulative = -0.000345425
smoothSolver:  Solving for nuTilda, Initial residual = 0.0225151, Final residual = 0.000554986, No Iterations 4
bounding nuTilda, min: -0.141202 max: 5.62819 average: 0.273931
ExecutionTime = 4.22 s  ClockTime = 5 s

forces airfoil write:
    sum of forces:
        pressure : (29.2618 51.4163 2.42349e-14)
        viscous  : (0.512277 0.00874716 -1.35814e-16)
        porous   : (0 0 0)
    sum of moments:
        pressure : (-1.28541 0.731546 244.731)
        viscous  : (-0.000218679 0.0128069 0.10977)
        porous   : (0 0 0)

Time = 96

smoothSolver:  Solving for Ux, Initial residual = 0.0155824, Final residual = 0.000672671, No Iterations 4
smoothSolver:  Solving for Uy, Initial residual = 0.0258208, Final residual = 0.00136896, No Iterations 4
GAMG:  Solving for p, Initial residual = 0.0779486, Final residual = 0.00507181, No Iterations 5
time step continuity errors : sum local = 2.58255e-05, global = -2.14835e-06, cumulative = -0.000347573
smoothSolver:  Solving for nuTilda, Initial residual = 0.0230992, Final residual = 0.000531991, No Iterations 4
bounding nuTilda, min: -0.0837942 max: 5.62298 average: 0.277119
ExecutionTime = 4.26 s  ClockTime = 5 s

Time = 97

smoothSolver:  Solving for Ux, Initial residual = 0.0160254, Final residual = 0.000680608, No Iterations 4
smoothSolver:  Solving for Uy, Initial residual = 0.0261724, Final residual = 0.00137014, No Iterations 4
GAMG:  Solving for p, Initial residual = 0.0796014, Final residual = 0.005394, No Iterations 5
time step continuity errors : sum local = 2.76196e-05, global = -2.14735e-06, cumulative = -0.00034972
smoothSolver:  Solving for nuTilda, Initial residual = 0.0237254, Final residual = 0.00050325, No Iterations 4
bounding nuTilda, min: -0.0312755 max: 5.6726 average: 0.280145
ExecutionTime = 4.3 s  ClockTime = 5 s

Time = 98

smoothSolver:  Solving for Ux, Initial residual = 0.0164777, Final residual = 0.000688646, No Iterations 4
smoothSolver:  Solving for Uy, Initial residual = 0.0265301, Final residual = 0.00136952, No Iterations 4
GAMG:  Solving for p, Initial residual = 0.0818459, Final residual = 0.00558852, No Iterations 5
time step continuity errors : sum local = 2.8727e-05, global = -1.97254e-06, cumulative = -0.000351693
smoothSolver:  Solving for nuTilda, Initial residual = 0.0242504, Final residual = 0.00236975, No Iterations 2
bounding nuTilda, min: -0.0120653 max: 5.64653 average: 0.283118
ExecutionTime = 4.34 s  ClockTime = 5 s

Time = 99

smoothSolver:  Solving for Ux, Initial residual = 0.0169346, Final residual = 0.000695893, No Iterations 4
smoothSolver:  Solving for Uy, Initial residual = 0.0268676, Final residual = 0.001368, No Iterations 4
GAMG:  Solving for p, Initial residual = 0.0833007, Final residual = 0.00564268, No Iterations 5
time step continuity errors : sum local = 2.90538e-05, global = -1.42364e-06, cumulative = -0.000353117
smoothSolver:  Solving for nuTilda, Initial residual = 0.0248075, Final residual = 0.00229868, No Iterations 2
bounding nuTilda, min: -0.042919 max: 5.6653 average: 0.285873
ExecutionTime = 4.38 s  ClockTime = 5 s

Time = 100

smoothSolver:  Solving for Ux, Initial residual = 0.0173871, Final residual = 0.000702439, No Iterations 4
smoothSolver:  Solving for Uy, Initial residual = 0.0271856, Final residual = 0.00136572, No Iterations 4
GAMG:  Solving for p, Initial residual = 0.0852349, Final residual = 0.00566078, No Iterations 5
time step continuity errors : sum local = 2.91394e-05, global = -1.39374e-06, cumulative = -0.00035451
smoothSolver:  Solving for nuTilda, Initial residual = 0.0253506, Final residual = 0.00221531, No Iterations 2
ExecutionTime = 4.49 s  ClockTime = 5 s

forces airfoil write:
    sum of forces:
        pressure : (23.2143 34.2883 1.82387e-14)
        viscous  : (0.501586 0.00845523 -1.07381e-16)
        porous   : (0 0 0)
    sum of moments:
        pressure : (-0.857208 0.580358 40.6782)
        viscous  : (-0.000211381 0.0125397 0.132545)
        porous   : (0 0 0)

Time = 101

smoothSolver:  Solving for Ux, Initial residual = 0.0178441, Final residual = 0.000708915, No Iterations 4
smoothSolver:  Solving for Uy, Initial residual = 0.0275028, Final residual = 0.0013647, No Iterations 4
GAMG:  Solving for p, Initial residual = 0.0876394, Final residual = 0.00558576, No Iterations 5
time step continuity errors : sum local = 2.87529e-05, global = -4.26916e-07, cumulative = -0.000354937
smoothSolver:  Solving for nuTilda, Initial residual = 0.0259741, Final residual = 0.00214338, No Iterations 2
bounding nuTilda, min: -0.0618948 max: 5.61925 average: 0.290627
ExecutionTime = 4.53 s  ClockTime = 5 s

Time = 102

smoothSolver:  Solving for Ux, Initial residual = 0.0183076, Final residual = 0.000715554, No Iterations 4
smoothSolver:  Solving for Uy, Initial residual = 0.0277953, Final residual = 0.00136081, No Iterations 4
GAMG:  Solving for p, Initial residual = 0.089989, Final residual = 0.00562665, No Iterations 5
time step continuity errors : sum local = 2.89343e-05, global = -4.6902e-07, cumulative = -0.000355406
smoothSolver:  Solving for nuTilda, Initial residual = 0.0266578, Final residual = 0.00210435, No Iterations 2
ExecutionTime = 4.57 s  ClockTime = 5 s

Time = 103

smoothSolver:  Solving for Ux, Initial residual = 0.0187741, Final residual = 0.000722729, No Iterations 4
smoothSolver:  Solving for Uy, Initial residual = 0.0280475, Final residual = 0.00135547, No Iterations 4
GAMG:  Solving for p, Initial residual = 0.0925901, Final residual = 0.00569092, No Iterations 5
time step continuity errors : sum local = 2.92144e-05, global = -4.17452e-07, cumulative = -0.000355824
smoothSolver:  Solving for nuTilda, Initial residual = 0.0275391, Final residual = 0.00209505, No Iterations 2
bounding nuTilda, min: -0.0223176 max: 5.57009 average: 0.294205
ExecutionTime = 4.61 s  ClockTime = 5 s

Time = 104

smoothSolver:  Solving for Ux, Initial residual = 0.0192673, Final residual = 0.000731847, No Iterations 4
smoothSolver:  Solving for Uy, Initial residual = 0.0282962, Final residual = 0.00135108, No Iterations 4
GAMG:  Solving for p, Initial residual = 0.0951078, Final residual = 0.00584849, No Iterations 5
time step continuity errors : sum local = 2.99606e-05, global = -4.48039e-07, cumulative = -0.000356272
smoothSolver:  Solving for nuTilda, Initial residual = 0.0285509, Final residual = 0.00209908, No Iterations 2
bounding nuTilda, min: -0.00367952 max: 5.47632 average: 0.295497
ExecutionTime = 4.65 s  ClockTime = 5 s

Time = 105

smoothSolver:  Solving for Ux, Initial residual = 0.0197722, Final residual = 0.000742731, No Iterations 4
smoothSolver:  Solving for Uy, Initial residual = 0.0285835, Final residual = 0.00134967, No Iterations 4
GAMG:  Solving for p, Initial residual = 0.0973949, Final residual = 0.00604674, No Iterations 5
time step continuity errors : sum local = 3.08735e-05, global = -3.17531e-07, cumulative = -0.000356589
smoothSolver:  Solving for nuTilda, Initial residual = 0.0295801, Final residual = 0.00211638, No Iterations 2
ExecutionTime = 4.69 s  ClockTime = 5 s

forces airfoil write:
    sum of forces:
        pressure : (15.56 24.6488 1.18163e-14)
        viscous  : (0.448505 0.0151861 -7.64106e-17)
        porous   : (0 0 0)
    sum of moments:
        pressure : (-0.616219 0.389001 -194.858)
        viscous  : (-0.000379654 0.0112126 0.222508)
        porous   : (0 0 0)

Time = 106

smoothSolver:  Solving for Ux, Initial residual = 0.0202871, Final residual = 0.000755071, No Iterations 4
smoothSolver:  Solving for Uy, Initial residual = 0.0289298, Final residual = 0.00135175, No Iterations 4
GAMG:  Solving for p, Initial residual = 0.100225, Final residual = 0.00631018, No Iterations 5
time step continuity errors : sum local = 3.20138e-05, global = -3.58138e-08, cumulative = -0.000356625
smoothSolver:  Solving for nuTilda, Initial residual = 0.0306866, Final residual = 0.00213959, No Iterations 2
ExecutionTime = 4.73 s  ClockTime = 5 s

Time = 107

smoothSolver:  Solving for Ux, Initial residual = 0.02083, Final residual = 0.000770167, No Iterations 4
smoothSolver:  Solving for Uy, Initial residual = 0.0293234, Final residual = 0.00135649, No Iterations 4
GAMG:  Solving for p, Initial residual = 0.104836, Final residual = 0.00657392, No Iterations 5
time step continuity errors : sum local = 3.30246e-05, global = 4.13577e-07, cumulative = -0.000356212
smoothSolver:  Solving for nuTilda, Initial residual = 0.0318454, Final residual = 0.00217903, No Iterations 2
ExecutionTime = 4.77 s  ClockTime = 5 s

Time = 108

smoothSolver:  Solving for Ux, Initial residual = 0.0213808, Final residual = 0.000788094, No Iterations 4
smoothSolver:  Solving for Uy, Initial residual = 0.0297598, Final residual = 0.00136378, No Iterations 4
GAMG:  Solving for p, Initial residual = 0.111058, Final residual = 0.0109393, No Iterations 4
time step continuity errors : sum local = 5.40782e-05, global = -7.35953e-07, cumulative = -0.000356948
smoothSolver:  Solving for nuTilda, Initial residual = 0.0330827, Final residual = 0.00225499, No Iterations 2
ExecutionTime = 4.8 s  ClockTime = 6 s

Time = 109

smoothSolver:  Solving for Ux, Initial residual = 0.0218889, Final residual = 0.000806685, No Iterations 4
smoothSolver:  Solving for Uy, Initial residual = 0.0301636, Final residual = 0.00136525, No Iterations 4
GAMG:  Solving for p, Initial residual = 0.117243, Final residual = 0.007401, No Iterations 5
time step continuity errors : sum local = 3.61121e-05, global = 6.51732e-07, cumulative = -0.000356296
smoothSolver:  Solving for nuTilda, Initial residual = 0.0342292, Final residual = 0.00233878, No Iterations 2
ExecutionTime = 4.84 s  ClockTime = 6 s

Time = 110

smoothSolver:  Solving for Ux, Initial residual = 0.0225355, Final residual = 0.000832289, No Iterations 4
smoothSolver:  Solving for Uy, Initial residual = 0.0306468, Final residual = 0.00138412, No Iterations 4
GAMG:  Solving for p, Initial residual = 0.12233, Final residual = 0.0118003, No Iterations 4
time step continuity errors : sum local = 5.60854e-05, global = -9.25077e-07, cumulative = -0.000357221
smoothSolver:  Solving for nuTilda, Initial residual = 0.0355047, Final residual = 0.00242714, No Iterations 2
ExecutionTime = 4.88 s  ClockTime = 6 s

forces airfoil write:
    sum of forces:
        pressure : (8.21094 27.5699 5.52448e-15)
        viscous  : (0.374775 0.0257901 -3.91534e-17)
        porous   : (0 0 0)
    sum of moments:
        pressure : (-0.689246 0.205273 -388.138)
        viscous  : (-0.000644751 0.00936937 0.302583)
        porous   : (0 0 0)

Time = 111

smoothSolver:  Solving for Ux, Initial residual = 0.0230982, Final residual = 0.000859103, No Iterations 4
smoothSolver:  Solving for Uy, Initial residual = 0.0310398, Final residual = 0.00139231, No Iterations 4
GAMG:  Solving for p, Initial residual = 0.126688, Final residual = 0.0117649, No Iterations 4
time step continuity errors : sum local = 5.51379e-05, global = -1.77304e-06, cumulative = -0.000358994
smoothSolver:  Solving for nuTilda, Initial residual = 0.0366732, Final residual = 0.00250647, No Iterations 2
bounding nuTilda, min: -0.00444759 max: 4.93271 average: 0.296316
ExecutionTime = 4.92 s  ClockTime = 6 s

Time = 112

smoothSolver:  Solving for Ux, Initial residual = 0.0237062, Final residual = 0.000894617, No Iterations 4
smoothSolver:  Solving for Uy, Initial residual = 0.0314548, Final residual = 0.00140731, No Iterations 4
GAMG:  Solving for p, Initial residual = 0.130853, Final residual = 0.0116976, No Iterations 4
time step continuity errors : sum local = 5.39544e-05, global = -4.28703e-06, cumulative = -0.000363281
smoothSolver:  Solving for nuTilda, Initial residual = 0.0378348, Final residual = 0.00257132, No Iterations 2
bounding nuTilda, min: -0.00748362 max: 4.93402 average: 0.295746
ExecutionTime = 4.96 s  ClockTime = 6 s

Time = 113

smoothSolver:  Solving for Ux, Initial residual = 0.0243835, Final residual = 0.000937109, No Iterations 4
smoothSolver:  Solving for Uy, Initial residual = 0.0319091, Final residual = 0.00143041, No Iterations 4
GAMG:  Solving for p, Initial residual = 0.138514, Final residual = 0.0119805, No Iterations 4
time step continuity errors : sum local = 5.37726e-05, global = -6.16405e-06, cumulative = -0.000369445
smoothSolver:  Solving for nuTilda, Initial residual = 0.0388787, Final residual = 0.00265152, No Iterations 2
bounding nuTilda, min: -0.0181628 max: 4.93197 average: 0.29511
ExecutionTime = 4.99 s  ClockTime = 6 s

Time = 114

smoothSolver:  Solving for Ux, Initial residual = 0.0251424, Final residual = 0.000985642, No Iterations 4
smoothSolver:  Solving for Uy, Initial residual = 0.0323223, Final residual = 0.00145838, No Iterations 4
GAMG:  Solving for p, Initial residual = 0.154491, Final residual = 0.0121186, No Iterations 4
time step continuity errors : sum local = 5.22237e-05, global = -5.12494e-06, cumulative = -0.00037457
smoothSolver:  Solving for nuTilda, Initial residual = 0.0398422, Final residual = 0.00274833, No Iterations 2
bounding nuTilda, min: -0.0204555 max: 4.92776 average: 0.29442
ExecutionTime = 5.04 s  ClockTime = 6 s

Time = 115

smoothSolver:  Solving for Ux, Initial residual = 0.0258854, Final residual = 0.00103397, No Iterations 4
smoothSolver:  Solving for Uy, Initial residual = 0.0326027, Final residual = 0.00147295, No Iterations 4
GAMG:  Solving for p, Initial residual = 0.164396, Final residual = 0.0124438, No Iterations 4
time step continuity errors : sum local = 5.21249e-05, global = -3.85179e-06, cumulative = -0.000378422
smoothSolver:  Solving for nuTilda, Initial residual = 0.040845, Final residual = 0.00284486, No Iterations 2
bounding nuTilda, min: -0.0202714 max: 4.91689 average: 0.293721
ExecutionTime = 5.08 s  ClockTime = 6 s

forces airfoil write:
    sum of forces:
        pressure : (2.85564 48.8218 -2.03371e-16)
        viscous  : (0.311161 0.0349069 1.00787e-17)
        porous   : (0 0 0)
    sum of moments:
        pressure : (-1.22054 0.071391 -478.074)
        viscous  : (-0.000872673 0.00777901 0.27524)
        porous   : (0 0 0)

Time = 116

smoothSolver:  Solving for Ux, Initial residual = 0.026481, Final residual = 0.00108268, No Iterations 4
smoothSolver:  Solving for Uy, Initial residual = 0.0327814, Final residual = 0.00148749, No Iterations 4
GAMG:  Solving for p, Initial residual = 0.166894, Final residual = 0.0131583, No Iterations 4
time step continuity errors : sum local = 5.43481e-05, global = -4.89076e-06, cumulative = -0.000383312
smoothSolver:  Solving for nuTilda, Initial residual = 0.041819, Final residual = 0.00291519, No Iterations 2
bounding nuTilda, min: -0.0191609 max: 4.91109 average: 0.293019
ExecutionTime = 5.12 s  ClockTime = 6 s

Time = 117

smoothSolver:  Solving for Ux, Initial residual = 0.0270853, Final residual = 0.00113811, No Iterations 4
smoothSolver:  Solving for Uy, Initial residual = 0.0329976, Final residual = 0.0015101, No Iterations 4
GAMG:  Solving for p, Initial residual = 0.178935, Final residual = 0.0156935, No Iterations 4
time step continuity errors : sum local = 6.28277e-05, global = -8.62218e-06, cumulative = -0.000391935
smoothSolver:  Solving for nuTilda, Initial residual = 0.0424753, Final residual = 0.00298813, No Iterations 2
bounding nuTilda, min: -0.0200523 max: 4.94028 average: 0.29231
ExecutionTime = 5.16 s  ClockTime = 6 s

Time = 118

smoothSolver:  Solving for Ux, Initial residual = 0.0278491, Final residual = 0.00120609, No Iterations 4
smoothSolver:  Solving for Uy, Initial residual = 0.0331875, Final residual = 0.00153846, No Iterations 4
GAMG:  Solving for p, Initial residual = 0.190906, Final residual = 0.0179042, No Iterations 4
[...]
ExecutionTime = 24.77 s  ClockTime = 26 s

Time = 573

smoothSolver:  Solving for Ux, Initial residual = 0.00834047, Final residual = 0.000342279, No Iterations 4
smoothSolver:  Solving for Uy, Initial residual = 0.016456, Final residual = 0.000855402, No Iterations 4
GAMG:  Solving for p, Initial residual = 0.0519893, Final residual = 0.00362593, No Iterations 5
time step continuity errors : sum local = 1.06472e-05, global = -2.13586e-06, cumulative = -0.00190489
smoothSolver:  Solving for nuTilda, Initial residual = 0.0101137, Final residual = 0.000168265, No Iterations 4
bounding nuTilda, min: -0.0434504 max: 5.94555 average: 0.406751
ExecutionTime = 24.81 s  ClockTime = 26 s

Time = 574

smoothSolver:  Solving for Ux, Initial residual = 0.00843174, Final residual = 0.000345046, No Iterations 4
smoothSolver:  Solving for Uy, Initial residual = 0.0165526, Final residual = 0.000851729, No Iterations 4
GAMG:  Solving for p, Initial residual = 0.0513756, Final residual = 0.00335503, No Iterations 5
time step continuity errors : sum local = 9.83653e-06, global = -1.78794e-06, cumulative = -0.00190668
smoothSolver:  Solving for nuTilda, Initial residual = 0.010571, Final residual = 0.00104389, No Iterations 2
bounding nuTilda, min: -0.0348854 max: 5.87989 average: 0.405034
ExecutionTime = 24.85 s  ClockTime = 26 s

Time = 575

smoothSolver:  Solving for Ux, Initial residual = 0.00852139, Final residual = 0.000347858, No Iterations 4
smoothSolver:  Solving for Uy, Initial residual = 0.0166787, Final residual = 0.000850973, No Iterations 4
GAMG:  Solving for p, Initial residual = 0.0505957, Final residual = 0.00331085, No Iterations 5
time step continuity errors : sum local = 9.69427e-06, global = -1.62551e-06, cumulative = -0.00190831
smoothSolver:  Solving for nuTilda, Initial residual = 0.0109234, Final residual = 0.00106124, No Iterations 2
bounding nuTilda, min: -0.0510441 max: 5.81185 average: 0.403285
ExecutionTime = 24.9 s  ClockTime = 26 s

forces airfoil write:
    sum of forces:
        pressure : (8.6281 56.0911 7.78964e-15)
        viscous  : (0.284371 0.0411376 -1.52402e-17)
        porous   : (0 0 0)
    sum of moments:
        pressure : (-1.40228 0.215702 -415.023)
        viscous  : (-0.00102844 0.00710927 0.358812)
        porous   : (0 0 0)

Time = 576

smoothSolver:  Solving for Ux, Initial residual = 0.00861859, Final residual = 0.000350225, No Iterations 4
smoothSolver:  Solving for Uy, Initial residual = 0.0168434, Final residual = 0.00084835, No Iterations 4
GAMG:  Solving for p, Initial residual = 0.0497524, Final residual = 0.0033743, No Iterations 5
time step continuity errors : sum local = 9.87521e-06, global = -1.51281e-06, cumulative = -0.00190982
smoothSolver:  Solving for nuTilda, Initial residual = 0.0113456, Final residual = 0.0010762, No Iterations 2
bounding nuTilda, min: -0.0654226 max: 5.74876 average: 0.401574
ExecutionTime = 24.93 s  ClockTime = 26 s

Time = 577

smoothSolver:  Solving for Ux, Initial residual = 0.00872178, Final residual = 0.000352477, No Iterations 4
smoothSolver:  Solving for Uy, Initial residual = 0.0170374, Final residual = 0.000844009, No Iterations 4
GAMG:  Solving for p, Initial residual = 0.0489725, Final residual = 0.0034624, No Iterations 5
time step continuity errors : sum local = 1.01344e-05, global = -1.40265e-06, cumulative = -0.00191122
smoothSolver:  Solving for nuTilda, Initial residual = 0.0116957, Final residual = 0.00108863, No Iterations 2
bounding nuTilda, min: -0.0713235 max: 5.68437 average: 0.399862
ExecutionTime = 24.98 s  ClockTime = 26 s

Time = 578

smoothSolver:  Solving for Ux, Initial residual = 0.008829, Final residual = 0.000354601, No Iterations 4
smoothSolver:  Solving for Uy, Initial residual = 0.0172168, Final residual = 0.000840501, No Iterations 4
GAMG:  Solving for p, Initial residual = 0.0486542, Final residual = 0.0035397, No Iterations 5
time step continuity errors : sum local = 1.03636e-05, global = -1.36168e-06, cumulative = -0.00191258
smoothSolver:  Solving for nuTilda, Initial residual = 0.0120417, Final residual = 0.00110035, No Iterations 2
bounding nuTilda, min: -0.0436158 max: 5.6094 average: 0.398226
ExecutionTime = 25.02 s  ClockTime = 26 s

Time = 579

smoothSolver:  Solving for Ux, Initial residual = 0.00893693, Final residual = 0.000356143, No Iterations 4
smoothSolver:  Solving for Uy, Initial residual = 0.0173782, Final residual = 0.000835056, No Iterations 4
GAMG:  Solving for p, Initial residual = 0.0487552, Final residual = 0.00361224, No Iterations 5
time step continuity errors : sum local = 1.05756e-05, global = -1.23977e-06, cumulative = -0.00191382
smoothSolver:  Solving for nuTilda, Initial residual = 0.0122825, Final residual = 0.00111035, No Iterations 2
bounding nuTilda, min: -0.092898 max: 5.52571 average: 0.396626
ExecutionTime = 25.06 s  ClockTime = 26 s

Time = 580

smoothSolver:  Solving for Ux, Initial residual = 0.0090484, Final residual = 0.00035729, No Iterations 4
smoothSolver:  Solving for Uy, Initial residual = 0.0174875, Final residual = 0.000829108, No Iterations 4
GAMG:  Solving for p, Initial residual = 0.0490045, Final residual = 0.00370965, No Iterations 5
time step continuity errors : sum local = 1.08576e-05, global = -1.30635e-06, cumulative = -0.00191513
smoothSolver:  Solving for nuTilda, Initial residual = 0.0124865, Final residual = 0.0011182, No Iterations 2
bounding nuTilda, min: -0.0538367 max: 5.50554 average: 0.395122
ExecutionTime = 25.16 s  ClockTime = 26 s

forces airfoil write:
    sum of forces:
        pressure : (7.72111 57.6686 6.48657e-15)
        viscous  : (0.283542 0.0413094 -1.07212e-17)
        porous   : (0 0 0)
    sum of moments:
        pressure : (-1.44171 0.193028 -422.825)
        viscous  : (-0.00103274 0.00708856 0.356613)
        porous   : (0 0 0)

Time = 581

smoothSolver:  Solving for Ux, Initial residual = 0.00916331, Final residual = 0.000358188, No Iterations 4
smoothSolver:  Solving for Uy, Initial residual = 0.0175512, Final residual = 0.000822271, No Iterations 4
GAMG:  Solving for p, Initial residual = 0.049326, Final residual = 0.00385004, No Iterations 5
time step continuity errors : sum local = 1.12658e-05, global = -1.35986e-06, cumulative = -0.00191649
smoothSolver:  Solving for nuTilda, Initial residual = 0.0126826, Final residual = 0.00112818, No Iterations 2
bounding nuTilda, min: -0.082773 max: 5.5313 average: 0.393686
ExecutionTime = 25.21 s  ClockTime = 26 s

Time = 582

smoothSolver:  Solving for Ux, Initial residual = 0.00928807, Final residual = 0.000358925, No Iterations 4
smoothSolver:  Solving for Uy, Initial residual = 0.0176611, Final residual = 0.000814036, No Iterations 4
GAMG:  Solving for p, Initial residual = 0.0493513, Final residual = 0.00403603, No Iterations 5
time step continuity errors : sum local = 1.17991e-05, global = -1.38209e-06, cumulative = -0.00191787
smoothSolver:  Solving for nuTilda, Initial residual = 0.0128604, Final residual = 0.00113839, No Iterations 2
bounding nuTilda, min: -0.0927878 max: 5.55192 average: 0.392343
ExecutionTime = 25.25 s  ClockTime = 26 s

Time = 583

smoothSolver:  Solving for Ux, Initial residual = 0.00941782, Final residual = 0.000359705, No Iterations 4
smoothSolver:  Solving for Uy, Initial residual = 0.0177881, Final residual = 0.00080461, No Iterations 4
GAMG:  Solving for p, Initial residual = 0.0492931, Final residual = 0.00423047, No Iterations 5
time step continuity errors : sum local = 1.23415e-05, global = -1.37009e-06, cumulative = -0.00191924
smoothSolver:  Solving for nuTilda, Initial residual = 0.0130923, Final residual = 0.00115042, No Iterations 2
bounding nuTilda, min: -0.0443225 max: 5.57601 average: 0.391107
ExecutionTime = 25.29 s  ClockTime = 26 s

Time = 584

smoothSolver:  Solving for Ux, Initial residual = 0.00956006, Final residual = 0.000361196, No Iterations 4
smoothSolver:  Solving for Uy, Initial residual = 0.0179038, Final residual = 0.000797402, No Iterations 4
GAMG:  Solving for p, Initial residual = 0.0493474, Final residual = 0.00438907, No Iterations 5
time step continuity errors : sum local = 1.27593e-05, global = -1.31994e-06, cumulative = -0.00192056
smoothSolver:  Solving for nuTilda, Initial residual = 0.013354, Final residual = 0.00116613, No Iterations 2
bounding nuTilda, min: -0.0563506 max: 5.59475 average: 0.389958
ExecutionTime = 25.33 s  ClockTime = 27 s

Time = 585

smoothSolver:  Solving for Ux, Initial residual = 0.00972501, Final residual = 0.000363643, No Iterations 4
smoothSolver:  Solving for Uy, Initial residual = 0.0180062, Final residual = 0.000792842, No Iterations 4
GAMG:  Solving for p, Initial residual = 0.0495035, Final residual = 0.00446663, No Iterations 5
time step continuity errors : sum local = 1.29127e-05, global = -1.06434e-06, cumulative = -0.00192163
smoothSolver:  Solving for nuTilda, Initial residual = 0.0136772, Final residual = 0.00118729, No Iterations 2
bounding nuTilda, min: -0.0581804 max: 5.60685 average: 0.388894
ExecutionTime = 25.37 s  ClockTime = 27 s

forces airfoil write:
    sum of forces:
        pressure : (6.48638 64.0147 5.14625e-15)
        viscous  : (0.278681 0.0420998 -8.9908e-18)
        porous   : (0 0 0)
    sum of moments:
        pressure : (-1.60037 0.16216 -426.06)
        viscous  : (-0.00105249 0.00696703 0.335269)
        porous   : (0 0 0)

Time = 586

smoothSolver:  Solving for Ux, Initial residual = 0.00990355, Final residual = 0.000367658, No Iterations 4
smoothSolver:  Solving for Uy, Initial residual = 0.0181539, Final residual = 0.000789021, No Iterations 4
GAMG:  Solving for p, Initial residual = 0.0496461, Final residual = 0.00449061, No Iterations 5
time step continuity errors : sum local = 1.2891e-05, global = -1.00129e-06, cumulative = -0.00192263
smoothSolver:  Solving for nuTilda, Initial residual = 0.014045, Final residual = 0.00121263, No Iterations 2
bounding nuTilda, min: -0.0412298 max: 5.61081 average: 0.387898
ExecutionTime = 25.41 s  ClockTime = 27 s

Time = 587

smoothSolver:  Solving for Ux, Initial residual = 0.0101126, Final residual = 0.000373716, No Iterations 4
smoothSolver:  Solving for Uy, Initial residual = 0.0183444, Final residual = 0.000783512, No Iterations 4
GAMG:  Solving for p, Initial residual = 0.0496533, Final residual = 0.00449047, No Iterations 5
time step continuity errors : sum local = 1.27947e-05, global = -5.47497e-07, cumulative = -0.00192318
smoothSolver:  Solving for nuTilda, Initial residual = 0.0145563, Final residual = 0.00124288, No Iterations 2
bounding nuTilda, min: -0.0189719 max: 5.6234 average: 0.386958
ExecutionTime = 25.46 s  ClockTime = 27 s

Time = 588

smoothSolver:  Solving for Ux, Initial residual = 0.0103617, Final residual = 0.000381958, No Iterations 4
smoothSolver:  Solving for Uy, Initial residual = 0.0185543, Final residual = 0.000779145, No Iterations 4
GAMG:  Solving for p, Initial residual = 0.0493853, Final residual = 0.00447746, No Iterations 5
time step continuity errors : sum local = 1.26536e-05, global = -2.3125e-07, cumulative = -0.00192341
smoothSolver:  Solving for nuTilda, Initial residual = 0.0150576, Final residual = 0.00127841, No Iterations 2
bounding nuTilda, min: -0.0342381 max: 5.63141 average: 0.386055
ExecutionTime = 25.5 s  ClockTime = 27 s

Time = 589

smoothSolver:  Solving for Ux, Initial residual = 0.0106384, Final residual = 0.000391982, No Iterations 4
smoothSolver:  Solving for Uy, Initial residual = 0.0187993, Final residual = 0.000777306, No Iterations 4
GAMG:  Solving for p, Initial residual = 0.0496423, Final residual = 0.00448019, No Iterations 5
time step continuity errors : sum local = 1.25528e-05, global = 1.75532e-07, cumulative = -0.00192323
smoothSolver:  Solving for nuTilda, Initial residual = 0.0156311, Final residual = 0.00131053, No Iterations 2
bounding nuTilda, min: -0.0391104 max: 5.63027 average: 0.385179
ExecutionTime = 25.53 s  ClockTime = 27 s

Time = 590

smoothSolver:  Solving for Ux, Initial residual = 0.0109339, Final residual = 0.000403982, No Iterations 4
smoothSolver:  Solving for Uy, Initial residual = 0.0190611, Final residual = 0.000775495, No Iterations 4
GAMG:  Solving for p, Initial residual = 0.0508266, Final residual = 0.00445056, No Iterations 5
time step continuity errors : sum local = 1.23623e-05, global = 6.12372e-07, cumulative = -0.00192262
smoothSolver:  Solving for nuTilda, Initial residual = 0.0161962, Final residual = 0.00134341, No Iterations 2
bounding nuTilda, min: -0.0245515 max: 5.64333 average: 0.384315
ExecutionTime = 25.57 s  ClockTime = 27 s

forces airfoil write:
    sum of forces:
        pressure : (5.13625 73.2017 4.12584e-15)
        viscous  : (0.270225 0.0431438 -7.15427e-18)
        porous   : (0 0 0)
    sum of moments:
        pressure : (-1.83004 0.128406 -424.831)
        viscous  : (-0.0010786 0.00675563 0.292544)
        porous   : (0 0 0)

Time = 591

smoothSolver:  Solving for Ux, Initial residual = 0.0112455, Final residual = 0.000417498, No Iterations 4
smoothSolver:  Solving for Uy, Initial residual = 0.0193249, Final residual = 0.000777406, No Iterations 4
GAMG:  Solving for p, Initial residual = 0.0523373, Final residual = 0.00434516, No Iterations 5
time step continuity errors : sum local = 1.19518e-05, global = 1.14375e-06, cumulative = -0.00192148
smoothSolver:  Solving for nuTilda, Initial residual = 0.0168374, Final residual = 0.0013692, No Iterations 2
bounding nuTilda, min: -0.0151361 max: 5.64759 average: 0.383429
ExecutionTime = 25.62 s  ClockTime = 27 s

Time = 592

smoothSolver:  Solving for Ux, Initial residual = 0.0115642, Final residual = 0.000431585, No Iterations 4
smoothSolver:  Solving for Uy, Initial residual = 0.019572, Final residual = 0.000782926, No Iterations 4
GAMG:  Solving for p, Initial residual = 0.0541357, Final residual = 0.00418555, No Iterations 5
time step continuity errors : sum local = 1.13998e-05, global = 1.46504e-06, cumulative = -0.00192001
smoothSolver:  Solving for nuTilda, Initial residual = 0.0174004, Final residual = 0.00139431, No Iterations 2
bounding nuTilda, min: -0.0224073 max: 5.65197 average: 0.382518
ExecutionTime = 25.66 s  ClockTime = 27 s

Time = 593

smoothSolver:  Solving for Ux, Initial residual = 0.0118883, Final residual = 0.000445578, No Iterations 4
smoothSolver:  Solving for Uy, Initial residual = 0.0197725, Final residual = 0.000788638, No Iterations 4
GAMG:  Solving for p, Initial residual = 0.0564665, Final residual = 0.00409576, No Iterations 5
time step continuity errors : sum local = 1.10571e-05, global = 1.81875e-06, cumulative = -0.00191819
smoothSolver:  Solving for nuTilda, Initial residual = 0.0179563, Final residual = 0.00141089, No Iterations 2
bounding nuTilda, min: -0.0401452 max: 5.6628 average: 0.381566
ExecutionTime = 25.7 s  ClockTime = 27 s

Time = 594

smoothSolver:  Solving for Ux, Initial residual = 0.0122082, Final residual = 0.000459062, No Iterations 4
smoothSolver:  Solving for Uy, Initial residual = 0.0199244, Final residual = 0.000793539, No Iterations 4
GAMG:  Solving for p, Initial residual = 0.059089, Final residual = 0.004095, No Iterations 5
time step continuity errors : sum local = 1.09778e-05, global = 1.97563e-06, cumulative = -0.00191622
smoothSolver:  Solving for nuTilda, Initial residual = 0.0184395, Final residual = 0.00142807, No Iterations 2
bounding nuTilda, min: -0.0302936 max: 5.66625 average: 0.380573
ExecutionTime = 25.74 s  ClockTime = 27 s

Time = 595

smoothSolver:  Solving for Ux, Initial residual = 0.0125244, Final residual = 0.000472551, No Iterations 4
smoothSolver:  Solving for Uy, Initial residual = 0.0200152, Final residual = 0.000797102, No Iterations 4
GAMG:  Solving for p, Initial residual = 0.061601, Final residual = 0.00602346, No Iterations 4
time step continuity errors : sum local = 1.60573e-05, global = -3.5049e-06, cumulative = -0.00191972
smoothSolver:  Solving for nuTilda, Initial residual = 0.0188864, Final residual = 0.00143991, No Iterations 2
bounding nuTilda, min: -0.0269778 max: 5.67504 average: 0.37951
ExecutionTime = 25.78 s  ClockTime = 27 s

forces airfoil write:
    sum of forces:
        pressure : (3.84376 83.2236 3.53454e-15)
        viscous  : (0.257362 0.0451311 7.61308e-18)
        porous   : (0 0 0)
    sum of moments:
        pressure : (-2.08059 0.0960941 -424.217)
        viscous  : (-0.00112828 0.00643405 0.249826)
        porous   : (0 0 0)

Time = 596

smoothSolver:  Solving for Ux, Initial residual = 0.0128057, Final residual = 0.000484657, No Iterations 4
smoothSolver:  Solving for Uy, Initial residual = 0.0200588, Final residual = 0.000801355, No Iterations 4
GAMG:  Solving for p, Initial residual = 0.0640554, Final residual = 0.00617335, No Iterations 4
time step continuity errors : sum local = 1.64199e-05, global = -4.38548e-06, cumulative = -0.00192411
smoothSolver:  Solving for nuTilda, Initial residual = 0.0192645, Final residual = 0.00144177, No Iterations 2
bounding nuTilda, min: -0.020744 max: 5.68684 average: 0.378365
ExecutionTime = 25.82 s  ClockTime = 27 s

Time = 597

smoothSolver:  Solving for Ux, Initial residual = 0.0130743, Final residual = 0.000495793, No Iterations 4
smoothSolver:  Solving for Uy, Initial residual = 0.0200631, Final residual = 0.000805874, No Iterations 4
GAMG:  Solving for p, Initial residual = 0.0663366, Final residual = 0.00639758, No Iterations 4
time step continuity errors : sum local = 1.69535e-05, global = -4.50522e-06, cumulative = -0.00192861
smoothSolver:  Solving for nuTilda, Initial residual = 0.0196123, Final residual = 0.0014453, No Iterations 2
bounding nuTilda, min: -0.0306934 max: 5.69705 average: 0.377115
ExecutionTime = 25.86 s  ClockTime = 27 s

Time = 598

smoothSolver:  Solving for Ux, Initial residual = 0.0133327, Final residual = 0.000506726, No Iterations 4
smoothSolver:  Solving for Uy, Initial residual = 0.0200303, Final residual = 0.000809381, No Iterations 4
GAMG:  Solving for p, Initial residual = 0.068362, Final residual = 0.00658154, No Iterations 4
time step continuity errors : sum local = 1.73396e-05, global = -4.46705e-06, cumulative = -0.00193308
smoothSolver:  Solving for nuTilda, Initial residual = 0.0198387, Final residual = 0.00144141, No Iterations 2
bounding nuTilda, min: -0.0323419 max: 5.71523 average: 0.37574
ExecutionTime = 25.9 s  ClockTime = 27 s

Time = 599

smoothSolver:  Solving for Ux, Initial residual = 0.0135653, Final residual = 0.000516914, No Iterations 4
smoothSolver:  Solving for Uy, Initial residual = 0.0199577, Final residual = 0.000811884, No Iterations 4
GAMG:  Solving for p, Initial residual = 0.0700465, Final residual = 0.0067412, No Iterations 4
time step continuity errors : sum local = 1.76647e-05, global = -4.61383e-06, cumulative = -0.00193769
smoothSolver:  Solving for nuTilda, Initial residual = 0.0200918, Final residual = 0.00143206, No Iterations 2
bounding nuTilda, min: -0.0253154 max: 5.72704 average: 0.374249
ExecutionTime = 25.93 s  ClockTime = 27 s

Time = 600

smoothSolver:  Solving for Ux, Initial residual = 0.0137663, Final residual = 0.000525397, No Iterations 4
smoothSolver:  Solving for Uy, Initial residual = 0.0198347, Final residual = 0.000812885, No Iterations 4
GAMG:  Solving for p, Initial residual = 0.0713657, Final residual = 0.00690644, No Iterations 4
time step continuity errors : sum local = 1.80278e-05, global = -4.94205e-06, cumulative = -0.00194263
smoothSolver:  Solving for nuTilda, Initial residual = 0.0202657, Final residual = 0.00141751, No Iterations 2
bounding nuTilda, min: -0.0216608 max: 5.7441 average: 0.372647
ExecutionTime = 26.04 s  ClockTime = 27 s

forces airfoil write:
    sum of forces:
        pressure : (2.6807 92.4092 3.39148e-15)
        viscous  : (0.244258 0.0478038 -7.5097e-18)
        porous   : (0 0 0)
    sum of moments:
        pressure : (-2.31023 0.0670175 -429.6)
        viscous  : (-0.0011951 0.00610645 0.213545)
        porous   : (0 0 0)

End

